*SPEF "IEEE 1481-1999"
*DESIGN "fft_N_rad2"
*DATE "Sat Dec  7 15:40:42 2024"
*VENDOR "SYNOPSYS INC"
*PROGRAM "Synopsys Design Compiler cmos"
*VERSION "T-2022.03-SP3"
*DESIGN_FLOW "SYNTHESIS"
*DIVIDER /
*DELIMITER :
*BUS_DELIMITER []
*T_UNIT 1.0 NS
*C_UNIT 0.0010 PF
*R_UNIT 1000.0 KOHM
*L_UNIT 1.0 HENRY

*PORTS

clk I *L 0.000e+00 *S 0.000e+00 1.261e+03 *D NBUFFX4_RVT 
reset I *L 0.000e+00 *S 2.128e-03 3.889e-02 *D NBUFFX4_RVT 
enable I *L 0.000e+00 *S 3.241e-03 2.835e-02 *D NBUFFX4_RVT 
data_in_0\[63\] I *L 0.000e+00 *S 1.889e-03 4.136e-02 *D NBUFFX4_RVT 
data_in_0\[62\] I *L 0.000e+00 *S 1.889e-03 4.136e-02 *D NBUFFX4_RVT 
data_in_0\[61\] I *L 0.000e+00 *S 1.889e-03 4.136e-02 *D NBUFFX4_RVT 
data_in_0\[60\] I *L 0.000e+00 *S 1.889e-03 4.136e-02 *D NBUFFX4_RVT 
data_in_0\[59\] I *L 0.000e+00 *S 1.889e-03 4.136e-02 *D NBUFFX4_RVT 
data_in_0\[58\] I *L 0.000e+00 *S 1.889e-03 4.136e-02 *D NBUFFX4_RVT 
data_in_0\[57\] I *L 0.000e+00 *S 1.889e-03 4.136e-02 *D NBUFFX4_RVT 
data_in_0\[56\] I *L 0.000e+00 *S 1.889e-03 4.136e-02 *D NBUFFX4_RVT 
data_in_0\[55\] I *L 0.000e+00 *S 1.889e-03 4.136e-02 *D NBUFFX4_RVT 
data_in_0\[54\] I *L 0.000e+00 *S 1.889e-03 4.136e-02 *D NBUFFX4_RVT 
data_in_0\[53\] I *L 0.000e+00 *S 1.889e-03 4.136e-02 *D NBUFFX4_RVT 
data_in_0\[52\] I *L 0.000e+00 *S 1.889e-03 4.136e-02 *D NBUFFX4_RVT 
data_in_0\[51\] I *L 0.000e+00 *S 1.889e-03 4.136e-02 *D NBUFFX4_RVT 
data_in_0\[50\] I *L 0.000e+00 *S 1.889e-03 4.136e-02 *D NBUFFX4_RVT 
data_in_0\[49\] I *L 0.000e+00 *S 1.889e-03 4.136e-02 *D NBUFFX4_RVT 
data_in_0\[48\] I *L 0.000e+00 *S 1.889e-03 4.136e-02 *D NBUFFX4_RVT 
data_in_0\[47\] I *L 0.000e+00 *S 1.889e-03 4.136e-02 *D NBUFFX4_RVT 
data_in_0\[46\] I *L 0.000e+00 *S 1.889e-03 4.136e-02 *D NBUFFX4_RVT 
data_in_0\[45\] I *L 0.000e+00 *S 1.889e-03 4.136e-02 *D NBUFFX4_RVT 
data_in_0\[44\] I *L 0.000e+00 *S 1.889e-03 4.136e-02 *D NBUFFX4_RVT 
data_in_0\[43\] I *L 0.000e+00 *S 1.889e-03 4.136e-02 *D NBUFFX4_RVT 
data_in_0\[42\] I *L 0.000e+00 *S 1.889e-03 4.136e-02 *D NBUFFX4_RVT 
data_in_0\[41\] I *L 0.000e+00 *S 1.889e-03 4.136e-02 *D NBUFFX4_RVT 
data_in_0\[40\] I *L 0.000e+00 *S 1.889e-03 4.136e-02 *D NBUFFX4_RVT 
data_in_0\[39\] I *L 0.000e+00 *S 1.889e-03 4.136e-02 *D NBUFFX4_RVT 
data_in_0\[38\] I *L 0.000e+00 *S 1.889e-03 4.136e-02 *D NBUFFX4_RVT 
data_in_0\[37\] I *L 0.000e+00 *S 1.889e-03 4.136e-02 *D NBUFFX4_RVT 
data_in_0\[36\] I *L 0.000e+00 *S 1.889e-03 4.136e-02 *D NBUFFX4_RVT 
data_in_0\[35\] I *L 0.000e+00 *S 1.889e-03 4.136e-02 *D NBUFFX4_RVT 
data_in_0\[34\] I *L 0.000e+00 *S 1.889e-03 4.136e-02 *D NBUFFX4_RVT 
data_in_0\[33\] I *L 0.000e+00 *S 1.889e-03 4.136e-02 *D NBUFFX4_RVT 
data_in_0\[32\] I *L 0.000e+00 *S 1.889e-03 4.136e-02 *D NBUFFX4_RVT 
data_in_0\[31\] I *L 0.000e+00 *S 1.889e-03 4.136e-02 *D NBUFFX4_RVT 
data_in_0\[30\] I *L 0.000e+00 *S 1.889e-03 4.136e-02 *D NBUFFX4_RVT 
data_in_0\[29\] I *L 0.000e+00 *S 1.889e-03 4.136e-02 *D NBUFFX4_RVT 
data_in_0\[28\] I *L 0.000e+00 *S 1.889e-03 4.136e-02 *D NBUFFX4_RVT 
data_in_0\[27\] I *L 0.000e+00 *S 1.889e-03 4.136e-02 *D NBUFFX4_RVT 
data_in_0\[26\] I *L 0.000e+00 *S 1.889e-03 4.136e-02 *D NBUFFX4_RVT 
data_in_0\[25\] I *L 0.000e+00 *S 1.889e-03 4.136e-02 *D NBUFFX4_RVT 
data_in_0\[24\] I *L 0.000e+00 *S 1.889e-03 4.136e-02 *D NBUFFX4_RVT 
data_in_0\[23\] I *L 0.000e+00 *S 1.889e-03 4.136e-02 *D NBUFFX4_RVT 
data_in_0\[22\] I *L 0.000e+00 *S 1.889e-03 4.136e-02 *D NBUFFX4_RVT 
data_in_0\[21\] I *L 0.000e+00 *S 1.889e-03 4.136e-02 *D NBUFFX4_RVT 
data_in_0\[20\] I *L 0.000e+00 *S 1.889e-03 4.136e-02 *D NBUFFX4_RVT 
data_in_0\[19\] I *L 0.000e+00 *S 1.889e-03 4.136e-02 *D NBUFFX4_RVT 
data_in_0\[18\] I *L 0.000e+00 *S 1.889e-03 4.136e-02 *D NBUFFX4_RVT 
data_in_0\[17\] I *L 0.000e+00 *S 1.889e-03 4.136e-02 *D NBUFFX4_RVT 
data_in_0\[16\] I *L 0.000e+00 *S 1.889e-03 4.136e-02 *D NBUFFX4_RVT 
data_in_0\[15\] I *L 0.000e+00 *S 1.889e-03 4.136e-02 *D NBUFFX4_RVT 
data_in_0\[14\] I *L 0.000e+00 *S 1.889e-03 4.136e-02 *D NBUFFX4_RVT 
data_in_0\[13\] I *L 0.000e+00 *S 1.889e-03 4.136e-02 *D NBUFFX4_RVT 
data_in_0\[12\] I *L 0.000e+00 *S 1.889e-03 4.136e-02 *D NBUFFX4_RVT 
data_in_0\[11\] I *L 0.000e+00 *S 1.889e-03 4.136e-02 *D NBUFFX4_RVT 
data_in_0\[10\] I *L 0.000e+00 *S 1.889e-03 4.136e-02 *D NBUFFX4_RVT 
data_in_0\[9\] I *L 0.000e+00 *S 1.889e-03 4.136e-02 *D NBUFFX4_RVT 
data_in_0\[8\] I *L 0.000e+00 *S 1.889e-03 4.136e-02 *D NBUFFX4_RVT 
data_in_0\[7\] I *L 0.000e+00 *S 1.889e-03 4.136e-02 *D NBUFFX4_RVT 
data_in_0\[6\] I *L 0.000e+00 *S 1.889e-03 4.136e-02 *D NBUFFX4_RVT 
data_in_0\[5\] I *L 0.000e+00 *S 1.889e-03 4.136e-02 *D NBUFFX4_RVT 
data_in_0\[4\] I *L 0.000e+00 *S 1.889e-03 4.136e-02 *D NBUFFX4_RVT 
data_in_0\[3\] I *L 0.000e+00 *S 1.889e-03 4.136e-02 *D NBUFFX4_RVT 
data_in_0\[2\] I *L 0.000e+00 *S 1.889e-03 4.136e-02 *D NBUFFX4_RVT 
data_in_0\[1\] I *L 0.000e+00 *S 1.889e-03 4.136e-02 *D NBUFFX4_RVT 
data_in_0\[0\] I *L 0.000e+00 *S 1.889e-03 4.136e-02 *D NBUFFX4_RVT 
data_in_1\[63\] I *L 0.000e+00 *S 1.889e-03 4.136e-02 *D NBUFFX4_RVT 
data_in_1\[62\] I *L 0.000e+00 *S 1.889e-03 4.136e-02 *D NBUFFX4_RVT 
data_in_1\[61\] I *L 0.000e+00 *S 1.889e-03 4.136e-02 *D NBUFFX4_RVT 
data_in_1\[60\] I *L 0.000e+00 *S 1.889e-03 4.136e-02 *D NBUFFX4_RVT 
data_in_1\[59\] I *L 0.000e+00 *S 1.889e-03 4.136e-02 *D NBUFFX4_RVT 
data_in_1\[58\] I *L 0.000e+00 *S 1.889e-03 4.136e-02 *D NBUFFX4_RVT 
data_in_1\[57\] I *L 0.000e+00 *S 1.889e-03 4.136e-02 *D NBUFFX4_RVT 
data_in_1\[56\] I *L 0.000e+00 *S 1.889e-03 4.136e-02 *D NBUFFX4_RVT 
data_in_1\[55\] I *L 0.000e+00 *S 1.889e-03 4.136e-02 *D NBUFFX4_RVT 
data_in_1\[54\] I *L 0.000e+00 *S 1.889e-03 4.136e-02 *D NBUFFX4_RVT 
data_in_1\[53\] I *L 0.000e+00 *S 1.889e-03 4.136e-02 *D NBUFFX4_RVT 
data_in_1\[52\] I *L 0.000e+00 *S 1.889e-03 4.136e-02 *D NBUFFX4_RVT 
data_in_1\[51\] I *L 0.000e+00 *S 1.889e-03 4.136e-02 *D NBUFFX4_RVT 
data_in_1\[50\] I *L 0.000e+00 *S 1.889e-03 4.136e-02 *D NBUFFX4_RVT 
data_in_1\[49\] I *L 0.000e+00 *S 1.889e-03 4.136e-02 *D NBUFFX4_RVT 
data_in_1\[48\] I *L 0.000e+00 *S 1.889e-03 4.136e-02 *D NBUFFX4_RVT 
data_in_1\[47\] I *L 0.000e+00 *S 1.889e-03 4.136e-02 *D NBUFFX4_RVT 
data_in_1\[46\] I *L 0.000e+00 *S 1.889e-03 4.136e-02 *D NBUFFX4_RVT 
data_in_1\[45\] I *L 0.000e+00 *S 1.889e-03 4.136e-02 *D NBUFFX4_RVT 
data_in_1\[44\] I *L 0.000e+00 *S 1.889e-03 4.136e-02 *D NBUFFX4_RVT 
data_in_1\[43\] I *L 0.000e+00 *S 1.889e-03 4.136e-02 *D NBUFFX4_RVT 
data_in_1\[42\] I *L 0.000e+00 *S 1.889e-03 4.136e-02 *D NBUFFX4_RVT 
data_in_1\[41\] I *L 0.000e+00 *S 1.889e-03 4.136e-02 *D NBUFFX4_RVT 
data_in_1\[40\] I *L 0.000e+00 *S 1.889e-03 4.136e-02 *D NBUFFX4_RVT 
data_in_1\[39\] I *L 0.000e+00 *S 1.889e-03 4.136e-02 *D NBUFFX4_RVT 
data_in_1\[38\] I *L 0.000e+00 *S 1.889e-03 4.136e-02 *D NBUFFX4_RVT 
data_in_1\[37\] I *L 0.000e+00 *S 1.889e-03 4.136e-02 *D NBUFFX4_RVT 
data_in_1\[36\] I *L 0.000e+00 *S 1.889e-03 4.136e-02 *D NBUFFX4_RVT 
data_in_1\[35\] I *L 0.000e+00 *S 1.889e-03 4.136e-02 *D NBUFFX4_RVT 
data_in_1\[34\] I *L 0.000e+00 *S 1.889e-03 4.136e-02 *D NBUFFX4_RVT 
data_in_1\[33\] I *L 0.000e+00 *S 1.889e-03 4.136e-02 *D NBUFFX4_RVT 
data_in_1\[32\] I *L 0.000e+00 *S 1.889e-03 4.136e-02 *D NBUFFX4_RVT 
data_in_1\[31\] I *L 0.000e+00 *S 1.889e-03 4.136e-02 *D NBUFFX4_RVT 
data_in_1\[30\] I *L 0.000e+00 *S 1.889e-03 4.136e-02 *D NBUFFX4_RVT 
data_in_1\[29\] I *L 0.000e+00 *S 1.889e-03 4.136e-02 *D NBUFFX4_RVT 
data_in_1\[28\] I *L 0.000e+00 *S 1.889e-03 4.136e-02 *D NBUFFX4_RVT 
data_in_1\[27\] I *L 0.000e+00 *S 1.889e-03 4.136e-02 *D NBUFFX4_RVT 
data_in_1\[26\] I *L 0.000e+00 *S 1.889e-03 4.136e-02 *D NBUFFX4_RVT 
data_in_1\[25\] I *L 0.000e+00 *S 1.889e-03 4.136e-02 *D NBUFFX4_RVT 
data_in_1\[24\] I *L 0.000e+00 *S 1.889e-03 4.136e-02 *D NBUFFX4_RVT 
data_in_1\[23\] I *L 0.000e+00 *S 1.889e-03 4.136e-02 *D NBUFFX4_RVT 
data_in_1\[22\] I *L 0.000e+00 *S 1.889e-03 4.136e-02 *D NBUFFX4_RVT 
data_in_1\[21\] I *L 0.000e+00 *S 1.889e-03 4.136e-02 *D NBUFFX4_RVT 
data_in_1\[20\] I *L 0.000e+00 *S 1.889e-03 4.136e-02 *D NBUFFX4_RVT 
data_in_1\[19\] I *L 0.000e+00 *S 1.889e-03 4.136e-02 *D NBUFFX4_RVT 
data_in_1\[18\] I *L 0.000e+00 *S 1.889e-03 4.136e-02 *D NBUFFX4_RVT 
data_in_1\[17\] I *L 0.000e+00 *S 1.889e-03 4.136e-02 *D NBUFFX4_RVT 
data_in_1\[16\] I *L 0.000e+00 *S 1.889e-03 4.136e-02 *D NBUFFX4_RVT 
data_in_1\[15\] I *L 0.000e+00 *S 1.889e-03 4.136e-02 *D NBUFFX4_RVT 
data_in_1\[14\] I *L 0.000e+00 *S 1.889e-03 4.136e-02 *D NBUFFX4_RVT 
data_in_1\[13\] I *L 0.000e+00 *S 1.889e-03 4.136e-02 *D NBUFFX4_RVT 
data_in_1\[12\] I *L 0.000e+00 *S 1.889e-03 4.136e-02 *D NBUFFX4_RVT 
data_in_1\[11\] I *L 0.000e+00 *S 1.889e-03 4.136e-02 *D NBUFFX4_RVT 
data_in_1\[10\] I *L 0.000e+00 *S 1.889e-03 4.136e-02 *D NBUFFX4_RVT 
data_in_1\[9\] I *L 0.000e+00 *S 1.889e-03 4.136e-02 *D NBUFFX4_RVT 
data_in_1\[8\] I *L 0.000e+00 *S 1.889e-03 4.136e-02 *D NBUFFX4_RVT 
data_in_1\[7\] I *L 0.000e+00 *S 1.889e-03 4.136e-02 *D NBUFFX4_RVT 
data_in_1\[6\] I *L 0.000e+00 *S 1.889e-03 4.136e-02 *D NBUFFX4_RVT 
data_in_1\[5\] I *L 0.000e+00 *S 1.889e-03 4.136e-02 *D NBUFFX4_RVT 
data_in_1\[4\] I *L 0.000e+00 *S 1.889e-03 4.136e-02 *D NBUFFX4_RVT 
data_in_1\[3\] I *L 0.000e+00 *S 1.889e-03 4.136e-02 *D NBUFFX4_RVT 
data_in_1\[2\] I *L 0.000e+00 *S 1.889e-03 4.136e-02 *D NBUFFX4_RVT 
data_in_1\[1\] I *L 0.000e+00 *S 1.889e-03 4.136e-02 *D NBUFFX4_RVT 
data_in_1\[0\] I *L 0.000e+00 *S 1.889e-03 4.136e-02 *D NBUFFX4_RVT 
fft_out\[511\] O *L 1.000e-01 *S 5.290e-04 6.400e-04 
fft_out\[510\] O *L 1.000e-01 *S 5.290e-04 6.400e-04 
fft_out\[509\] O *L 1.000e-01 *S 5.290e-04 6.400e-04 
fft_out\[508\] O *L 1.000e-01 *S 5.290e-04 6.400e-04 
fft_out\[507\] O *L 1.000e-01 *S 5.290e-04 6.400e-04 
fft_out\[506\] O *L 1.000e-01 *S 5.290e-04 6.400e-04 
fft_out\[505\] O *L 1.000e-01 *S 5.290e-04 6.400e-04 
fft_out\[504\] O *L 1.000e-01 *S 5.290e-04 6.400e-04 
fft_out\[503\] O *L 1.000e-01 *S 5.290e-04 6.400e-04 
fft_out\[502\] O *L 1.000e-01 *S 5.290e-04 6.400e-04 
fft_out\[501\] O *L 1.000e-01 *S 5.290e-04 6.400e-04 
fft_out\[500\] O *L 1.000e-01 *S 5.290e-04 6.400e-04 
fft_out\[499\] O *L 1.000e-01 *S 5.290e-04 6.400e-04 
fft_out\[498\] O *L 1.000e-01 *S 5.290e-04 6.400e-04 
fft_out\[497\] O *L 1.000e-01 *S 5.290e-04 6.400e-04 
fft_out\[496\] O *L 1.000e-01 *S 5.290e-04 6.400e-04 
fft_out\[495\] O *L 1.000e-01 *S 5.290e-04 6.400e-04 
fft_out\[494\] O *L 1.000e-01 *S 5.290e-04 6.400e-04 
fft_out\[493\] O *L 1.000e-01 *S 5.290e-04 6.400e-04 
fft_out\[492\] O *L 1.000e-01 *S 5.290e-04 6.400e-04 
fft_out\[491\] O *L 1.000e-01 *S 5.290e-04 6.400e-04 
fft_out\[490\] O *L 1.000e-01 *S 5.290e-04 6.400e-04 
fft_out\[489\] O *L 1.000e-01 *S 5.290e-04 6.400e-04 
fft_out\[488\] O *L 1.000e-01 *S 5.290e-04 6.400e-04 
fft_out\[487\] O *L 1.000e-01 *S 5.290e-04 6.400e-04 
fft_out\[486\] O *L 1.000e-01 *S 5.290e-04 6.400e-04 
fft_out\[485\] O *L 1.000e-01 *S 5.290e-04 6.400e-04 
fft_out\[484\] O *L 1.000e-01 *S 5.290e-04 6.400e-04 
fft_out\[483\] O *L 1.000e-01 *S 5.290e-04 6.400e-04 
fft_out\[482\] O *L 1.000e-01 *S 5.290e-04 6.400e-04 
fft_out\[481\] O *L 1.000e-01 *S 5.290e-04 6.400e-04 
fft_out\[480\] O *L 1.000e-01 *S 5.290e-04 6.400e-04 
fft_out\[479\] O *L 1.000e-01 *S 5.290e-04 6.400e-04 
fft_out\[478\] O *L 1.000e-01 *S 5.290e-04 6.400e-04 
fft_out\[477\] O *L 1.000e-01 *S 5.290e-04 6.400e-04 
fft_out\[476\] O *L 1.000e-01 *S 5.290e-04 6.400e-04 
fft_out\[475\] O *L 1.000e-01 *S 5.290e-04 6.400e-04 
fft_out\[474\] O *L 1.000e-01 *S 5.290e-04 6.400e-04 
fft_out\[473\] O *L 1.000e-01 *S 5.290e-04 6.400e-04 
fft_out\[472\] O *L 1.000e-01 *S 5.290e-04 6.400e-04 
fft_out\[471\] O *L 1.000e-01 *S 5.290e-04 6.400e-04 
fft_out\[470\] O *L 1.000e-01 *S 5.290e-04 6.400e-04 
fft_out\[469\] O *L 1.000e-01 *S 5.290e-04 6.400e-04 
fft_out\[468\] O *L 1.000e-01 *S 5.290e-04 6.400e-04 
fft_out\[467\] O *L 1.000e-01 *S 5.290e-04 6.400e-04 
fft_out\[466\] O *L 1.000e-01 *S 5.290e-04 6.400e-04 
fft_out\[465\] O *L 1.000e-01 *S 5.290e-04 6.400e-04 
fft_out\[464\] O *L 1.000e-01 *S 5.290e-04 6.400e-04 
fft_out\[463\] O *L 1.000e-01 *S 5.290e-04 6.400e-04 
fft_out\[462\] O *L 1.000e-01 *S 5.290e-04 6.400e-04 
fft_out\[461\] O *L 1.000e-01 *S 5.290e-04 6.400e-04 
fft_out\[460\] O *L 1.000e-01 *S 5.290e-04 6.400e-04 
fft_out\[459\] O *L 1.000e-01 *S 5.290e-04 6.400e-04 
fft_out\[458\] O *L 1.000e-01 *S 5.290e-04 6.400e-04 
fft_out\[457\] O *L 1.000e-01 *S 5.290e-04 6.400e-04 
fft_out\[456\] O *L 1.000e-01 *S 5.290e-04 6.400e-04 
fft_out\[455\] O *L 1.000e-01 *S 5.290e-04 6.400e-04 
fft_out\[454\] O *L 1.000e-01 *S 5.290e-04 6.400e-04 
fft_out\[453\] O *L 1.000e-01 *S 5.290e-04 6.400e-04 
fft_out\[452\] O *L 1.000e-01 *S 5.290e-04 6.400e-04 
fft_out\[451\] O *L 1.000e-01 *S 5.290e-04 6.400e-04 
fft_out\[450\] O *L 1.000e-01 *S 5.290e-04 6.400e-04 
fft_out\[449\] O *L 1.000e-01 *S 5.290e-04 6.400e-04 
fft_out\[448\] O *L 1.000e-01 *S 5.290e-04 6.400e-04 
fft_out\[447\] O *L 1.000e-01 *S 5.290e-04 6.400e-04 
fft_out\[446\] O *L 1.000e-01 *S 5.290e-04 6.400e-04 
fft_out\[445\] O *L 1.000e-01 *S 5.290e-04 6.400e-04 
fft_out\[444\] O *L 1.000e-01 *S 5.290e-04 6.400e-04 
fft_out\[443\] O *L 1.000e-01 *S 5.290e-04 6.400e-04 
fft_out\[442\] O *L 1.000e-01 *S 5.290e-04 6.400e-04 
fft_out\[441\] O *L 1.000e-01 *S 5.290e-04 6.400e-04 
fft_out\[440\] O *L 1.000e-01 *S 5.290e-04 6.400e-04 
fft_out\[439\] O *L 1.000e-01 *S 5.290e-04 6.400e-04 
fft_out\[438\] O *L 1.000e-01 *S 5.290e-04 6.400e-04 
fft_out\[437\] O *L 1.000e-01 *S 5.290e-04 6.400e-04 
fft_out\[436\] O *L 1.000e-01 *S 5.290e-04 6.400e-04 
fft_out\[435\] O *L 1.000e-01 *S 5.290e-04 6.400e-04 
fft_out\[434\] O *L 1.000e-01 *S 5.290e-04 6.400e-04 
fft_out\[433\] O *L 1.000e-01 *S 5.290e-04 6.400e-04 
fft_out\[432\] O *L 1.000e-01 *S 5.290e-04 6.400e-04 
fft_out\[431\] O *L 1.000e-01 *S 5.290e-04 6.400e-04 
fft_out\[430\] O *L 1.000e-01 *S 5.290e-04 6.400e-04 
fft_out\[429\] O *L 1.000e-01 *S 5.290e-04 6.400e-04 
fft_out\[428\] O *L 1.000e-01 *S 5.290e-04 6.400e-04 
fft_out\[427\] O *L 1.000e-01 *S 5.290e-04 6.400e-04 
fft_out\[426\] O *L 1.000e-01 *S 5.290e-04 6.400e-04 
fft_out\[425\] O *L 1.000e-01 *S 5.290e-04 6.400e-04 
fft_out\[424\] O *L 1.000e-01 *S 5.290e-04 6.400e-04 
fft_out\[423\] O *L 1.000e-01 *S 5.290e-04 6.400e-04 
fft_out\[422\] O *L 1.000e-01 *S 5.290e-04 6.400e-04 
fft_out\[421\] O *L 1.000e-01 *S 5.290e-04 6.400e-04 
fft_out\[420\] O *L 1.000e-01 *S 5.290e-04 6.400e-04 
fft_out\[419\] O *L 1.000e-01 *S 5.290e-04 6.400e-04 
fft_out\[418\] O *L 1.000e-01 *S 5.290e-04 6.400e-04 
fft_out\[417\] O *L 1.000e-01 *S 5.290e-04 6.400e-04 
fft_out\[416\] O *L 1.000e-01 *S 5.290e-04 6.400e-04 
fft_out\[415\] O *L 1.000e-01 *S 5.290e-04 6.400e-04 
fft_out\[414\] O *L 1.000e-01 *S 5.290e-04 6.400e-04 
fft_out\[413\] O *L 1.000e-01 *S 5.290e-04 6.400e-04 
fft_out\[412\] O *L 1.000e-01 *S 5.290e-04 6.400e-04 
fft_out\[411\] O *L 1.000e-01 *S 5.290e-04 6.400e-04 
fft_out\[410\] O *L 1.000e-01 *S 5.290e-04 6.400e-04 
fft_out\[409\] O *L 1.000e-01 *S 5.290e-04 6.400e-04 
fft_out\[408\] O *L 1.000e-01 *S 5.290e-04 6.400e-04 
fft_out\[407\] O *L 1.000e-01 *S 5.290e-04 6.400e-04 
fft_out\[406\] O *L 1.000e-01 *S 5.290e-04 6.400e-04 
fft_out\[405\] O *L 1.000e-01 *S 5.290e-04 6.400e-04 
fft_out\[404\] O *L 1.000e-01 *S 5.290e-04 6.400e-04 
fft_out\[403\] O *L 1.000e-01 *S 5.290e-04 6.400e-04 
fft_out\[402\] O *L 1.000e-01 *S 5.290e-04 6.400e-04 
fft_out\[401\] O *L 1.000e-01 *S 5.290e-04 6.400e-04 
fft_out\[400\] O *L 1.000e-01 *S 5.290e-04 6.400e-04 
fft_out\[399\] O *L 1.000e-01 *S 5.290e-04 6.400e-04 
fft_out\[398\] O *L 1.000e-01 *S 5.290e-04 6.400e-04 
fft_out\[397\] O *L 1.000e-01 *S 5.290e-04 6.400e-04 
fft_out\[396\] O *L 1.000e-01 *S 5.290e-04 6.400e-04 
fft_out\[395\] O *L 1.000e-01 *S 5.290e-04 6.400e-04 
fft_out\[394\] O *L 1.000e-01 *S 5.290e-04 6.400e-04 
fft_out\[393\] O *L 1.000e-01 *S 5.290e-04 6.400e-04 
fft_out\[392\] O *L 1.000e-01 *S 5.290e-04 6.400e-04 
fft_out\[391\] O *L 1.000e-01 *S 5.290e-04 6.400e-04 
fft_out\[390\] O *L 1.000e-01 *S 5.290e-04 6.400e-04 
fft_out\[389\] O *L 1.000e-01 *S 5.290e-04 6.400e-04 
fft_out\[388\] O *L 1.000e-01 *S 5.290e-04 6.400e-04 
fft_out\[387\] O *L 1.000e-01 *S 5.290e-04 6.400e-04 
fft_out\[386\] O *L 1.000e-01 *S 5.290e-04 6.400e-04 
fft_out\[385\] O *L 1.000e-01 *S 5.290e-04 6.400e-04 
fft_out\[384\] O *L 1.000e-01 *S 5.290e-04 6.400e-04 
fft_out\[383\] O *L 1.000e-01 *S 5.290e-04 6.400e-04 
fft_out\[382\] O *L 1.000e-01 *S 5.290e-04 6.400e-04 
fft_out\[381\] O *L 1.000e-01 *S 5.290e-04 6.400e-04 
fft_out\[380\] O *L 1.000e-01 *S 5.290e-04 6.400e-04 
fft_out\[379\] O *L 1.000e-01 *S 5.290e-04 6.400e-04 
fft_out\[378\] O *L 1.000e-01 *S 5.290e-04 6.400e-04 
fft_out\[377\] O *L 1.000e-01 *S 5.290e-04 6.400e-04 
fft_out\[376\] O *L 1.000e-01 *S 5.290e-04 6.400e-04 
fft_out\[375\] O *L 1.000e-01 *S 5.290e-04 6.400e-04 
fft_out\[374\] O *L 1.000e-01 *S 5.290e-04 6.400e-04 
fft_out\[373\] O *L 1.000e-01 *S 5.290e-04 6.400e-04 
fft_out\[372\] O *L 1.000e-01 *S 5.290e-04 6.400e-04 
fft_out\[371\] O *L 1.000e-01 *S 5.290e-04 6.400e-04 
fft_out\[370\] O *L 1.000e-01 *S 5.290e-04 6.400e-04 
fft_out\[369\] O *L 1.000e-01 *S 5.290e-04 6.400e-04 
fft_out\[368\] O *L 1.000e-01 *S 5.290e-04 6.400e-04 
fft_out\[367\] O *L 1.000e-01 *S 5.290e-04 6.400e-04 
fft_out\[366\] O *L 1.000e-01 *S 5.290e-04 6.400e-04 
fft_out\[365\] O *L 1.000e-01 *S 5.290e-04 6.400e-04 
fft_out\[364\] O *L 1.000e-01 *S 5.290e-04 6.400e-04 
fft_out\[363\] O *L 1.000e-01 *S 5.290e-04 6.400e-04 
fft_out\[362\] O *L 1.000e-01 *S 5.290e-04 6.400e-04 
fft_out\[361\] O *L 1.000e-01 *S 5.290e-04 6.400e-04 
fft_out\[360\] O *L 1.000e-01 *S 5.290e-04 6.400e-04 
fft_out\[359\] O *L 1.000e-01 *S 5.290e-04 6.400e-04 
fft_out\[358\] O *L 1.000e-01 *S 5.290e-04 6.400e-04 
fft_out\[357\] O *L 1.000e-01 *S 5.290e-04 6.400e-04 
fft_out\[356\] O *L 1.000e-01 *S 5.290e-04 6.400e-04 
fft_out\[355\] O *L 1.000e-01 *S 5.290e-04 6.400e-04 
fft_out\[354\] O *L 1.000e-01 *S 5.290e-04 6.400e-04 
fft_out\[353\] O *L 1.000e-01 *S 5.290e-04 6.400e-04 
fft_out\[352\] O *L 1.000e-01 *S 5.290e-04 6.400e-04 
fft_out\[351\] O *L 1.000e-01 *S 5.290e-04 6.400e-04 
fft_out\[350\] O *L 1.000e-01 *S 5.290e-04 6.400e-04 
fft_out\[349\] O *L 1.000e-01 *S 5.290e-04 6.400e-04 
fft_out\[348\] O *L 1.000e-01 *S 5.290e-04 6.400e-04 
fft_out\[347\] O *L 1.000e-01 *S 5.290e-04 6.400e-04 
fft_out\[346\] O *L 1.000e-01 *S 5.290e-04 6.400e-04 
fft_out\[345\] O *L 1.000e-01 *S 5.290e-04 6.400e-04 
fft_out\[344\] O *L 1.000e-01 *S 5.290e-04 6.400e-04 
fft_out\[343\] O *L 1.000e-01 *S 5.290e-04 6.400e-04 
fft_out\[342\] O *L 1.000e-01 *S 5.290e-04 6.400e-04 
fft_out\[341\] O *L 1.000e-01 *S 5.290e-04 6.400e-04 
fft_out\[340\] O *L 1.000e-01 *S 5.290e-04 6.400e-04 
fft_out\[339\] O *L 1.000e-01 *S 5.290e-04 6.400e-04 
fft_out\[338\] O *L 1.000e-01 *S 5.290e-04 6.400e-04 
fft_out\[337\] O *L 1.000e-01 *S 5.290e-04 6.400e-04 
fft_out\[336\] O *L 1.000e-01 *S 5.290e-04 6.400e-04 
fft_out\[335\] O *L 1.000e-01 *S 5.290e-04 6.400e-04 
fft_out\[334\] O *L 1.000e-01 *S 5.290e-04 6.400e-04 
fft_out\[333\] O *L 1.000e-01 *S 5.290e-04 6.400e-04 
fft_out\[332\] O *L 1.000e-01 *S 5.290e-04 6.400e-04 
fft_out\[331\] O *L 1.000e-01 *S 5.290e-04 6.400e-04 
fft_out\[330\] O *L 1.000e-01 *S 5.290e-04 6.400e-04 
fft_out\[329\] O *L 1.000e-01 *S 5.290e-04 6.400e-04 
fft_out\[328\] O *L 1.000e-01 *S 5.290e-04 6.400e-04 
fft_out\[327\] O *L 1.000e-01 *S 5.290e-04 6.400e-04 
fft_out\[326\] O *L 1.000e-01 *S 5.290e-04 6.400e-04 
fft_out\[325\] O *L 1.000e-01 *S 5.290e-04 6.400e-04 
fft_out\[324\] O *L 1.000e-01 *S 5.290e-04 6.400e-04 
fft_out\[323\] O *L 1.000e-01 *S 5.290e-04 6.400e-04 
fft_out\[322\] O *L 1.000e-01 *S 5.290e-04 6.400e-04 
fft_out\[321\] O *L 1.000e-01 *S 5.290e-04 6.400e-04 
fft_out\[320\] O *L 1.000e-01 *S 5.290e-04 6.400e-04 
fft_out\[319\] O *L 1.000e-01 *S 5.290e-04 6.400e-04 
fft_out\[318\] O *L 1.000e-01 *S 5.290e-04 6.400e-04 
fft_out\[317\] O *L 1.000e-01 *S 5.290e-04 6.400e-04 
fft_out\[316\] O *L 1.000e-01 *S 5.290e-04 6.400e-04 
fft_out\[315\] O *L 1.000e-01 *S 5.290e-04 6.400e-04 
fft_out\[314\] O *L 1.000e-01 *S 5.290e-04 6.400e-04 
fft_out\[313\] O *L 1.000e-01 *S 5.290e-04 6.400e-04 
fft_out\[312\] O *L 1.000e-01 *S 5.290e-04 6.400e-04 
fft_out\[311\] O *L 1.000e-01 *S 5.290e-04 6.400e-04 
fft_out\[310\] O *L 1.000e-01 *S 5.290e-04 6.400e-04 
fft_out\[309\] O *L 1.000e-01 *S 5.290e-04 6.400e-04 
fft_out\[308\] O *L 1.000e-01 *S 5.290e-04 6.400e-04 
fft_out\[307\] O *L 1.000e-01 *S 5.290e-04 6.400e-04 
fft_out\[306\] O *L 1.000e-01 *S 5.290e-04 6.400e-04 
fft_out\[305\] O *L 1.000e-01 *S 5.290e-04 6.400e-04 
fft_out\[304\] O *L 1.000e-01 *S 5.290e-04 6.400e-04 
fft_out\[303\] O *L 1.000e-01 *S 5.290e-04 6.400e-04 
fft_out\[302\] O *L 1.000e-01 *S 5.290e-04 6.400e-04 
fft_out\[301\] O *L 1.000e-01 *S 5.290e-04 6.400e-04 
fft_out\[300\] O *L 1.000e-01 *S 5.290e-04 6.400e-04 
fft_out\[299\] O *L 1.000e-01 *S 5.290e-04 6.400e-04 
fft_out\[298\] O *L 1.000e-01 *S 5.290e-04 6.400e-04 
fft_out\[297\] O *L 1.000e-01 *S 5.290e-04 6.400e-04 
fft_out\[296\] O *L 1.000e-01 *S 5.290e-04 6.400e-04 
fft_out\[295\] O *L 1.000e-01 *S 5.290e-04 6.400e-04 
fft_out\[294\] O *L 1.000e-01 *S 5.290e-04 6.400e-04 
fft_out\[293\] O *L 1.000e-01 *S 5.290e-04 6.400e-04 
fft_out\[292\] O *L 1.000e-01 *S 5.290e-04 6.400e-04 
fft_out\[291\] O *L 1.000e-01 *S 5.290e-04 6.400e-04 
fft_out\[290\] O *L 1.000e-01 *S 5.290e-04 6.400e-04 
fft_out\[289\] O *L 1.000e-01 *S 5.290e-04 6.400e-04 
fft_out\[288\] O *L 1.000e-01 *S 5.290e-04 6.400e-04 
fft_out\[287\] O *L 1.000e-01 *S 5.290e-04 6.400e-04 
fft_out\[286\] O *L 1.000e-01 *S 5.290e-04 6.400e-04 
fft_out\[285\] O *L 1.000e-01 *S 5.290e-04 6.400e-04 
fft_out\[284\] O *L 1.000e-01 *S 5.290e-04 6.400e-04 
fft_out\[283\] O *L 1.000e-01 *S 5.290e-04 6.400e-04 
fft_out\[282\] O *L 1.000e-01 *S 5.290e-04 6.400e-04 
fft_out\[281\] O *L 1.000e-01 *S 5.290e-04 6.400e-04 
fft_out\[280\] O *L 1.000e-01 *S 5.290e-04 6.400e-04 
fft_out\[279\] O *L 1.000e-01 *S 5.290e-04 6.400e-04 
fft_out\[278\] O *L 1.000e-01 *S 5.290e-04 6.400e-04 
fft_out\[277\] O *L 1.000e-01 *S 5.290e-04 6.400e-04 
fft_out\[276\] O *L 1.000e-01 *S 5.290e-04 6.400e-04 
fft_out\[275\] O *L 1.000e-01 *S 5.290e-04 6.400e-04 
fft_out\[274\] O *L 1.000e-01 *S 5.290e-04 6.400e-04 
fft_out\[273\] O *L 1.000e-01 *S 5.290e-04 6.400e-04 
fft_out\[272\] O *L 1.000e-01 *S 5.290e-04 6.400e-04 
fft_out\[271\] O *L 1.000e-01 *S 5.290e-04 6.400e-04 
fft_out\[270\] O *L 1.000e-01 *S 5.290e-04 6.400e-04 
fft_out\[269\] O *L 1.000e-01 *S 5.290e-04 6.400e-04 
fft_out\[268\] O *L 1.000e-01 *S 5.290e-04 6.400e-04 
fft_out\[267\] O *L 1.000e-01 *S 5.290e-04 6.400e-04 
fft_out\[266\] O *L 1.000e-01 *S 5.290e-04 6.400e-04 
fft_out\[265\] O *L 1.000e-01 *S 5.290e-04 6.400e-04 
fft_out\[264\] O *L 1.000e-01 *S 5.290e-04 6.400e-04 
fft_out\[263\] O *L 1.000e-01 *S 5.290e-04 6.400e-04 
fft_out\[262\] O *L 1.000e-01 *S 5.290e-04 6.400e-04 
fft_out\[261\] O *L 1.000e-01 *S 5.290e-04 6.400e-04 
fft_out\[260\] O *L 1.000e-01 *S 5.290e-04 6.400e-04 
fft_out\[259\] O *L 1.000e-01 *S 5.290e-04 6.400e-04 
fft_out\[258\] O *L 1.000e-01 *S 5.290e-04 6.400e-04 
fft_out\[257\] O *L 1.000e-01 *S 5.290e-04 6.400e-04 
fft_out\[256\] O *L 1.000e-01 *S 5.290e-04 6.400e-04 
fft_out\[255\] O *L 1.000e-01 *S 5.290e-04 6.400e-04 
fft_out\[254\] O *L 1.000e-01 *S 5.290e-04 6.400e-04 
fft_out\[253\] O *L 1.000e-01 *S 5.290e-04 6.400e-04 
fft_out\[252\] O *L 1.000e-01 *S 5.290e-04 6.400e-04 
fft_out\[251\] O *L 1.000e-01 *S 5.290e-04 6.400e-04 
fft_out\[250\] O *L 1.000e-01 *S 5.290e-04 6.400e-04 
fft_out\[249\] O *L 1.000e-01 *S 5.290e-04 6.400e-04 
fft_out\[248\] O *L 1.000e-01 *S 5.290e-04 6.400e-04 
fft_out\[247\] O *L 1.000e-01 *S 5.290e-04 6.400e-04 
fft_out\[246\] O *L 1.000e-01 *S 5.290e-04 6.400e-04 
fft_out\[245\] O *L 1.000e-01 *S 5.290e-04 6.400e-04 
fft_out\[244\] O *L 1.000e-01 *S 5.290e-04 6.400e-04 
fft_out\[243\] O *L 1.000e-01 *S 5.290e-04 6.400e-04 
fft_out\[242\] O *L 1.000e-01 *S 5.290e-04 6.400e-04 
fft_out\[241\] O *L 1.000e-01 *S 5.290e-04 6.400e-04 
fft_out\[240\] O *L 1.000e-01 *S 5.290e-04 6.400e-04 
fft_out\[239\] O *L 1.000e-01 *S 5.290e-04 6.400e-04 
fft_out\[238\] O *L 1.000e-01 *S 5.290e-04 6.400e-04 
fft_out\[237\] O *L 1.000e-01 *S 5.290e-04 6.400e-04 
fft_out\[236\] O *L 1.000e-01 *S 5.290e-04 6.400e-04 
fft_out\[235\] O *L 1.000e-01 *S 5.290e-04 6.400e-04 
fft_out\[234\] O *L 1.000e-01 *S 5.290e-04 6.400e-04 
fft_out\[233\] O *L 1.000e-01 *S 5.290e-04 6.400e-04 
fft_out\[232\] O *L 1.000e-01 *S 5.290e-04 6.400e-04 
fft_out\[231\] O *L 1.000e-01 *S 5.290e-04 6.400e-04 
fft_out\[230\] O *L 1.000e-01 *S 5.290e-04 6.400e-04 
fft_out\[229\] O *L 1.000e-01 *S 5.290e-04 6.400e-04 
fft_out\[228\] O *L 1.000e-01 *S 5.290e-04 6.400e-04 
fft_out\[227\] O *L 1.000e-01 *S 5.290e-04 6.400e-04 
fft_out\[226\] O *L 1.000e-01 *S 5.290e-04 6.400e-04 
fft_out\[225\] O *L 1.000e-01 *S 5.290e-04 6.400e-04 
fft_out\[224\] O *L 1.000e-01 *S 5.290e-04 6.400e-04 
fft_out\[223\] O *L 1.000e-01 *S 5.290e-04 6.400e-04 
fft_out\[222\] O *L 1.000e-01 *S 5.290e-04 6.400e-04 
fft_out\[221\] O *L 1.000e-01 *S 5.290e-04 6.400e-04 
fft_out\[220\] O *L 1.000e-01 *S 5.290e-04 6.400e-04 
fft_out\[219\] O *L 1.000e-01 *S 5.290e-04 6.400e-04 
fft_out\[218\] O *L 1.000e-01 *S 5.290e-04 6.400e-04 
fft_out\[217\] O *L 1.000e-01 *S 5.290e-04 6.400e-04 
fft_out\[216\] O *L 1.000e-01 *S 5.290e-04 6.400e-04 
fft_out\[215\] O *L 1.000e-01 *S 5.290e-04 6.400e-04 
fft_out\[214\] O *L 1.000e-01 *S 5.290e-04 6.400e-04 
fft_out\[213\] O *L 1.000e-01 *S 5.290e-04 6.400e-04 
fft_out\[212\] O *L 1.000e-01 *S 5.290e-04 6.400e-04 
fft_out\[211\] O *L 1.000e-01 *S 5.290e-04 6.400e-04 
fft_out\[210\] O *L 1.000e-01 *S 5.290e-04 6.400e-04 
fft_out\[209\] O *L 1.000e-01 *S 5.290e-04 6.400e-04 
fft_out\[208\] O *L 1.000e-01 *S 5.290e-04 6.400e-04 
fft_out\[207\] O *L 1.000e-01 *S 5.290e-04 6.400e-04 
fft_out\[206\] O *L 1.000e-01 *S 5.290e-04 6.400e-04 
fft_out\[205\] O *L 1.000e-01 *S 5.290e-04 6.400e-04 
fft_out\[204\] O *L 1.000e-01 *S 5.290e-04 6.400e-04 
fft_out\[203\] O *L 1.000e-01 *S 5.290e-04 6.400e-04 
fft_out\[202\] O *L 1.000e-01 *S 5.290e-04 6.400e-04 
fft_out\[201\] O *L 1.000e-01 *S 5.290e-04 6.400e-04 
fft_out\[200\] O *L 1.000e-01 *S 5.290e-04 6.400e-04 
fft_out\[199\] O *L 1.000e-01 *S 5.290e-04 6.400e-04 
fft_out\[198\] O *L 1.000e-01 *S 5.290e-04 6.400e-04 
fft_out\[197\] O *L 1.000e-01 *S 5.290e-04 6.400e-04 
fft_out\[196\] O *L 1.000e-01 *S 5.290e-04 6.400e-04 
fft_out\[195\] O *L 1.000e-01 *S 5.290e-04 6.400e-04 
fft_out\[194\] O *L 1.000e-01 *S 5.290e-04 6.400e-04 
fft_out\[193\] O *L 1.000e-01 *S 5.290e-04 6.400e-04 
fft_out\[192\] O *L 1.000e-01 *S 5.290e-04 6.400e-04 
fft_out\[191\] O *L 1.000e-01 *S 5.290e-04 6.400e-04 
fft_out\[190\] O *L 1.000e-01 *S 5.290e-04 6.400e-04 
fft_out\[189\] O *L 1.000e-01 *S 5.290e-04 6.400e-04 
fft_out\[188\] O *L 1.000e-01 *S 5.290e-04 6.400e-04 
fft_out\[187\] O *L 1.000e-01 *S 5.290e-04 6.400e-04 
fft_out\[186\] O *L 1.000e-01 *S 5.290e-04 6.400e-04 
fft_out\[185\] O *L 1.000e-01 *S 5.290e-04 6.400e-04 
fft_out\[184\] O *L 1.000e-01 *S 5.290e-04 6.400e-04 
fft_out\[183\] O *L 1.000e-01 *S 5.290e-04 6.400e-04 
fft_out\[182\] O *L 1.000e-01 *S 5.290e-04 6.400e-04 
fft_out\[181\] O *L 1.000e-01 *S 5.290e-04 6.400e-04 
fft_out\[180\] O *L 1.000e-01 *S 5.290e-04 6.400e-04 
fft_out\[179\] O *L 1.000e-01 *S 5.290e-04 6.400e-04 
fft_out\[178\] O *L 1.000e-01 *S 5.290e-04 6.400e-04 
fft_out\[177\] O *L 1.000e-01 *S 5.290e-04 6.400e-04 
fft_out\[176\] O *L 1.000e-01 *S 5.290e-04 6.400e-04 
fft_out\[175\] O *L 1.000e-01 *S 5.290e-04 6.400e-04 
fft_out\[174\] O *L 1.000e-01 *S 5.290e-04 6.400e-04 
fft_out\[173\] O *L 1.000e-01 *S 5.290e-04 6.400e-04 
fft_out\[172\] O *L 1.000e-01 *S 5.290e-04 6.400e-04 
fft_out\[171\] O *L 1.000e-01 *S 5.290e-04 6.400e-04 
fft_out\[170\] O *L 1.000e-01 *S 5.290e-04 6.400e-04 
fft_out\[169\] O *L 1.000e-01 *S 5.290e-04 6.400e-04 
fft_out\[168\] O *L 1.000e-01 *S 5.290e-04 6.400e-04 
fft_out\[167\] O *L 1.000e-01 *S 5.290e-04 6.400e-04 
fft_out\[166\] O *L 1.000e-01 *S 5.290e-04 6.400e-04 
fft_out\[165\] O *L 1.000e-01 *S 5.290e-04 6.400e-04 
fft_out\[164\] O *L 1.000e-01 *S 5.290e-04 6.400e-04 
fft_out\[163\] O *L 1.000e-01 *S 5.290e-04 6.400e-04 
fft_out\[162\] O *L 1.000e-01 *S 5.290e-04 6.400e-04 
fft_out\[161\] O *L 1.000e-01 *S 5.290e-04 6.400e-04 
fft_out\[160\] O *L 1.000e-01 *S 5.290e-04 6.400e-04 
fft_out\[159\] O *L 1.000e-01 *S 5.290e-04 6.400e-04 
fft_out\[158\] O *L 1.000e-01 *S 5.290e-04 6.400e-04 
fft_out\[157\] O *L 1.000e-01 *S 5.290e-04 6.400e-04 
fft_out\[156\] O *L 1.000e-01 *S 5.290e-04 6.400e-04 
fft_out\[155\] O *L 1.000e-01 *S 5.290e-04 6.400e-04 
fft_out\[154\] O *L 1.000e-01 *S 5.290e-04 6.400e-04 
fft_out\[153\] O *L 1.000e-01 *S 5.290e-04 6.400e-04 
fft_out\[152\] O *L 1.000e-01 *S 5.290e-04 6.400e-04 
fft_out\[151\] O *L 1.000e-01 *S 5.290e-04 6.400e-04 
fft_out\[150\] O *L 1.000e-01 *S 5.290e-04 6.400e-04 
fft_out\[149\] O *L 1.000e-01 *S 5.290e-04 6.400e-04 
fft_out\[148\] O *L 1.000e-01 *S 5.290e-04 6.400e-04 
fft_out\[147\] O *L 1.000e-01 *S 5.290e-04 6.400e-04 
fft_out\[146\] O *L 1.000e-01 *S 5.290e-04 6.400e-04 
fft_out\[145\] O *L 1.000e-01 *S 5.290e-04 6.400e-04 
fft_out\[144\] O *L 1.000e-01 *S 5.290e-04 6.400e-04 
fft_out\[143\] O *L 1.000e-01 *S 5.290e-04 6.400e-04 
fft_out\[142\] O *L 1.000e-01 *S 5.290e-04 6.400e-04 
fft_out\[141\] O *L 1.000e-01 *S 5.290e-04 6.400e-04 
fft_out\[140\] O *L 1.000e-01 *S 5.290e-04 6.400e-04 
fft_out\[139\] O *L 1.000e-01 *S 5.290e-04 6.400e-04 
fft_out\[138\] O *L 1.000e-01 *S 5.290e-04 6.400e-04 
fft_out\[137\] O *L 1.000e-01 *S 5.290e-04 6.400e-04 
fft_out\[136\] O *L 1.000e-01 *S 5.290e-04 6.400e-04 
fft_out\[135\] O *L 1.000e-01 *S 5.290e-04 6.400e-04 
fft_out\[134\] O *L 1.000e-01 *S 5.290e-04 6.400e-04 
fft_out\[133\] O *L 1.000e-01 *S 5.290e-04 6.400e-04 
fft_out\[132\] O *L 1.000e-01 *S 5.290e-04 6.400e-04 