*SPEF "IEEE 1481-1999"
*DESIGN "fp_mul"
*DATE "Sun Nov 10 21:35:05 2024"
*VENDOR "SYNOPSYS INC"
*PROGRAM "Synopsys Design Compiler cmos"
*VERSION "T-2022.03-SP3"
*DESIGN_FLOW "SYNTHESIS"
*DIVIDER /
*DELIMITER :
*BUS_DELIMITER []
*T_UNIT 1.0 NS
*C_UNIT 0.0010 PF
*R_UNIT 1000.0 KOHM
*L_UNIT 1.0 HENRY

*PORTS

clk I *L 0.000e+00 *S 0.000e+00 3.304e-01 *D NBUFFX4_RVT 
reset I *L 0.000e+00 *S 2.130e-03 3.886e-02 *D NBUFFX4_RVT 
enable I *L 0.000e+00 *S 2.183e-03 3.832e-02 *D NBUFFX4_RVT 
idataA\[31\] I *L 0.000e+00 *S 1.891e-03 4.134e-02 *D NBUFFX4_RVT 
idataA\[30\] I *L 0.000e+00 *S 1.891e-03 4.134e-02 *D NBUFFX4_RVT 
idataA\[29\] I *L 0.000e+00 *S 1.891e-03 4.134e-02 *D NBUFFX4_RVT 
idataA\[28\] I *L 0.000e+00 *S 1.891e-03 4.134e-02 *D NBUFFX4_RVT 
idataA\[27\] I *L 0.000e+00 *S 1.891e-03 4.134e-02 *D NBUFFX4_RVT 
idataA\[26\] I *L 0.000e+00 *S 1.891e-03 4.134e-02 *D NBUFFX4_RVT 
idataA\[25\] I *L 0.000e+00 *S 1.891e-03 4.134e-02 *D NBUFFX4_RVT 
idataA\[24\] I *L 0.000e+00 *S 1.891e-03 4.134e-02 *D NBUFFX4_RVT 
idataA\[23\] I *L 0.000e+00 *S 1.891e-03 4.134e-02 *D NBUFFX4_RVT 
idataA\[22\] I *L 0.000e+00 *S 1.891e-03 4.134e-02 *D NBUFFX4_RVT 
idataA\[21\] I *L 0.000e+00 *S 1.891e-03 4.134e-02 *D NBUFFX4_RVT 
idataA\[20\] I *L 0.000e+00 *S 1.891e-03 4.134e-02 *D NBUFFX4_RVT 
idataA\[19\] I *L 0.000e+00 *S 1.891e-03 4.134e-02 *D NBUFFX4_RVT 
idataA\[18\] I *L 0.000e+00 *S 1.891e-03 4.134e-02 *D NBUFFX4_RVT 
idataA\[17\] I *L 0.000e+00 *S 1.891e-03 4.134e-02 *D NBUFFX4_RVT 
idataA\[16\] I *L 0.000e+00 *S 1.891e-03 4.134e-02 *D NBUFFX4_RVT 
idataA\[15\] I *L 0.000e+00 *S 1.891e-03 4.134e-02 *D NBUFFX4_RVT 
idataA\[14\] I *L 0.000e+00 *S 1.891e-03 4.134e-02 *D NBUFFX4_RVT 
idataA\[13\] I *L 0.000e+00 *S 1.891e-03 4.134e-02 *D NBUFFX4_RVT 
idataA\[12\] I *L 0.000e+00 *S 1.891e-03 4.134e-02 *D NBUFFX4_RVT 
idataA\[11\] I *L 0.000e+00 *S 1.891e-03 4.134e-02 *D NBUFFX4_RVT 
idataA\[10\] I *L 0.000e+00 *S 1.891e-03 4.134e-02 *D NBUFFX4_RVT 
idataA\[9\] I *L 0.000e+00 *S 1.891e-03 4.134e-02 *D NBUFFX4_RVT 
idataA\[8\] I *L 0.000e+00 *S 1.891e-03 4.134e-02 *D NBUFFX4_RVT 
idataA\[7\] I *L 0.000e+00 *S 1.891e-03 4.134e-02 *D NBUFFX4_RVT 
idataA\[6\] I *L 0.000e+00 *S 1.891e-03 4.134e-02 *D NBUFFX4_RVT 
idataA\[5\] I *L 0.000e+00 *S 1.891e-03 4.134e-02 *D NBUFFX4_RVT 
idataA\[4\] I *L 0.000e+00 *S 1.891e-03 4.134e-02 *D NBUFFX4_RVT 
idataA\[3\] I *L 0.000e+00 *S 1.891e-03 4.134e-02 *D NBUFFX4_RVT 
idataA\[2\] I *L 0.000e+00 *S 1.891e-03 4.134e-02 *D NBUFFX4_RVT 
idataA\[1\] I *L 0.000e+00 *S 1.891e-03 4.134e-02 *D NBUFFX4_RVT 
idataA\[0\] I *L 0.000e+00 *S 1.891e-03 4.134e-02 *D NBUFFX4_RVT 
idataB\[31\] I *L 0.000e+00 *S 1.891e-03 4.134e-02 *D NBUFFX4_RVT 
idataB\[30\] I *L 0.000e+00 *S 1.891e-03 4.134e-02 *D NBUFFX4_RVT 
idataB\[29\] I *L 0.000e+00 *S 1.891e-03 4.134e-02 *D NBUFFX4_RVT 
idataB\[28\] I *L 0.000e+00 *S 1.891e-03 4.134e-02 *D NBUFFX4_RVT 
idataB\[27\] I *L 0.000e+00 *S 1.891e-03 4.134e-02 *D NBUFFX4_RVT 
idataB\[26\] I *L 0.000e+00 *S 1.891e-03 4.134e-02 *D NBUFFX4_RVT 
idataB\[25\] I *L 0.000e+00 *S 1.891e-03 4.134e-02 *D NBUFFX4_RVT 
idataB\[24\] I *L 0.000e+00 *S 1.891e-03 4.134e-02 *D NBUFFX4_RVT 
idataB\[23\] I *L 0.000e+00 *S 1.891e-03 4.134e-02 *D NBUFFX4_RVT 
idataB\[22\] I *L 0.000e+00 *S 1.891e-03 4.134e-02 *D NBUFFX4_RVT 
idataB\[21\] I *L 0.000e+00 *S 1.891e-03 4.134e-02 *D NBUFFX4_RVT 
idataB\[20\] I *L 0.000e+00 *S 1.891e-03 4.134e-02 *D NBUFFX4_RVT 
idataB\[19\] I *L 0.000e+00 *S 1.891e-03 4.134e-02 *D NBUFFX4_RVT 
idataB\[18\] I *L 0.000e+00 *S 1.891e-03 4.134e-02 *D NBUFFX4_RVT 
idataB\[17\] I *L 0.000e+00 *S 1.891e-03 4.134e-02 *D NBUFFX4_RVT 
idataB\[16\] I *L 0.000e+00 *S 1.891e-03 4.134e-02 *D NBUFFX4_RVT 
idataB\[15\] I *L 0.000e+00 *S 1.891e-03 4.134e-02 *D NBUFFX4_RVT 
idataB\[14\] I *L 0.000e+00 *S 1.891e-03 4.134e-02 *D NBUFFX4_RVT 
idataB\[13\] I *L 0.000e+00 *S 1.891e-03 4.134e-02 *D NBUFFX4_RVT 
idataB\[12\] I *L 0.000e+00 *S 1.891e-03 4.134e-02 *D NBUFFX4_RVT 
idataB\[11\] I *L 0.000e+00 *S 1.891e-03 4.134e-02 *D NBUFFX4_RVT 
idataB\[10\] I *L 0.000e+00 *S 1.891e-03 4.134e-02 *D NBUFFX4_RVT 
idataB\[9\] I *L 0.000e+00 *S 1.891e-03 4.134e-02 *D NBUFFX4_RVT 
idataB\[8\] I *L 0.000e+00 *S 1.891e-03 4.134e-02 *D NBUFFX4_RVT 
idataB\[7\] I *L 0.000e+00 *S 1.891e-03 4.134e-02 *D NBUFFX4_RVT 
idataB\[6\] I *L 0.000e+00 *S 1.891e-03 4.134e-02 *D NBUFFX4_RVT 
idataB\[5\] I *L 0.000e+00 *S 1.891e-03 4.134e-02 *D NBUFFX4_RVT 
idataB\[4\] I *L 0.000e+00 *S 1.891e-03 4.134e-02 *D NBUFFX4_RVT 
idataB\[3\] I *L 0.000e+00 *S 1.891e-03 4.134e-02 *D NBUFFX4_RVT 
idataB\[2\] I *L 0.000e+00 *S 1.891e-03 4.134e-02 *D NBUFFX4_RVT 
idataB\[1\] I *L 0.000e+00 *S 1.891e-03 4.134e-02 *D NBUFFX4_RVT 
idataB\[0\] I *L 0.000e+00 *S 1.891e-03 4.134e-02 *D NBUFFX4_RVT 
odata\[31\] O *L 3.000e-01 *S 2.112e-03 2.419e-03 
odata\[30\] O *L 3.000e-01 *S 2.112e-03 2.419e-03 
odata\[29\] O *L 3.000e-01 *S 2.112e-03 2.419e-03 
odata\[28\] O *L 3.000e-01 *S 2.112e-03 2.419e-03 
odata\[27\] O *L 3.000e-01 *S 2.112e-03 2.419e-03 
odata\[26\] O *L 3.000e-01 *S 2.112e-03 2.419e-03 
odata\[25\] O *L 3.000e-01 *S 2.112e-03 2.419e-03 
odata\[24\] O *L 3.000e-01 *S 2.112e-03 2.419e-03 
odata\[23\] O *L 3.000e-01 *S 2.112e-03 2.419e-03 
odata\[22\] O *L 3.000e-01 *S 2.112e-03 2.419e-03 
odata\[21\] O *L 3.000e-01 *S 2.112e-03 2.419e-03 
odata\[20\] O *L 3.000e-01 *S 2.112e-03 2.419e-03 
odata\[19\] O *L 3.000e-01 *S 2.112e-03 2.419e-03 
odata\[18\] O *L 3.000e-01 *S 2.112e-03 2.419e-03 
odata\[17\] O *L 3.000e-01 *S 2.112e-03 2.419e-03 
odata\[16\] O *L 3.000e-01 *S 2.112e-03 2.419e-03 
odata\[15\] O *L 3.000e-01 *S 2.112e-03 2.419e-03 
odata\[14\] O *L 3.000e-01 *S 2.112e-03 2.419e-03 
odata\[13\] O *L 3.000e-01 *S 2.112e-03 2.419e-03 
odata\[12\] O *L 3.000e-01 *S 2.112e-03 2.419e-03 
odata\[11\] O *L 3.000e-01 *S 2.112e-03 2.419e-03 
odata\[10\] O *L 3.000e-01 *S 2.112e-03 2.419e-03 
odata\[9\] O *L 3.000e-01 *S 2.112e-03 2.419e-03 
odata\[8\] O *L 3.000e-01 *S 2.112e-03 2.419e-03 
odata\[7\] O *L 3.000e-01 *S 2.112e-03 2.419e-03 
odata\[6\] O *L 3.000e-01 *S 2.112e-03 2.419e-03 
odata\[5\] O *L 3.000e-01 *S 2.112e-03 2.419e-03 
odata\[4\] O *L 3.000e-01 *S 2.112e-03 2.419e-03 
odata\[3\] O *L 3.000e-01 *S 2.112e-03 2.419e-03 
odata\[2\] O *L 3.000e-01 *S 2.112e-03 2.419e-03 
odata\[1\] O *L 3.000e-01 *S 2.112e-03 2.419e-03 
odata\[0\] O *L 3.000e-01 *S 2.112e-03 2.419e-03 
out_valid O *L 3.000e-01 *S 1.973e-03 2.864e-03 

*R_NET clk 4.389e+02
*DRIVER clk
*CELL NBUFFX4_RVT
*C2_R1_C1 2.194e+02 1.771e+01 2.194e+02 
*LOADS
*RC idataB_mat_ff_reg_20_:CLK 4.315e-01
*RC idataB_mat_ff_reg_11_:CLK 4.315e-01
*RC out_valid_stage_3_reg:CLK 4.395e-01
*RC idataA_mat_ff_reg_2_:CLK 4.323e-01
*RC idataB_mat_ff_reg_10_:CLK 4.315e-01
*RC idataB_mat_ff_reg_13_:CLK 4.315e-01
*RC idataB_mat_ff_reg_21_:CLK 4.315e-01
*RC idataB_mat_ff_reg_12_:CLK 4.315e-01
*RC idataB_mat_ff_reg_19_:CLK 4.315e-01
*RC idataB_mat_ff_reg_14_:CLK 4.315e-01
*RC idataA_mat_ff_reg_12_:CLK 4.315e-01
*RC idataA_mat_ff_reg_20_:CLK 4.315e-01
*RC idataA_mat_ff_reg_14_:CLK 4.315e-01
*RC idataA_mat_ff_reg_3_:CLK 4.315e-01
*RC idataA_mat_ff_reg_1_:CLK 4.315e-01
*RC idataA_mat_ff_reg_5_:CLK 4.315e-01
*RC idataA_mat_ff_reg_9_:CLK 4.323e-01
*RC idataB_mat_ff_reg_18_:CLK 4.315e-01
*RC idataA_mat_ff_reg_7_:CLK 4.315e-01
*RC idataA_mat_ff_reg_8_:CLK 4.323e-01
*RC idataA_mat_ff_reg_22_:CLK 4.323e-01
*RC idataA_mat_ff_reg_19_:CLK 4.315e-01
*RC idataA_mat_ff_reg_21_:CLK 4.315e-01
*RC idataA_mat_ff_reg_23_:CLK 4.315e-01
*RC idataA_mat_ff_reg_13_:CLK 4.323e-01
*RC idataA_mat_ff_reg_17_:CLK 4.315e-01
*RC idataB_mat_ff_reg_3_:CLK 4.315e-01
*RC idataB_mat_ff_reg_17_:CLK 4.315e-01
*RC idataB_mat_ff_reg_7_:CLK 4.315e-01
*RC idataB_mat_ff_reg_2_:CLK 4.315e-01
*RC idataB_mat_ff_reg_0_:CLK 4.315e-01
*RC idataB_mat_ff_reg_15_:CLK 4.315e-01
*RC idataA_mat_ff_reg_18_:CLK 4.323e-01
*RC idataB_mat_ff_reg_16_:CLK 4.315e-01
*RC idataA_mat_ff_reg_15_:CLK 4.323e-01
*RC product_mat_ff_reg_47_:CLK 4.323e-01
*RC product_mat_ff_reg_35_:CLK 4.323e-01
*RC product_mat_ff_reg_34_:CLK 4.323e-01
*RC product_mat_ff_reg_39_:CLK 4.323e-01
*RC product_mat_ff_reg_32_:CLK 4.323e-01
*RC product_mat_ff_reg_33_:CLK 4.323e-01
*RC product_mat_ff_reg_28_:CLK 4.323e-01
*RC product_mat_ff_reg_43_:CLK 4.323e-01
*RC product_mat_ff_reg_27_:CLK 4.323e-01
*RC product_mat_ff_reg_44_:CLK 4.323e-01
*RC product_mat_ff_reg_45_:CLK 4.323e-01
*RC product_mat_ff_reg_37_:CLK 4.323e-01
*RC product_mat_ff_reg_46_:CLK 4.323e-01
*RC product_mat_ff_reg_36_:CLK 4.323e-01
*RC product_mat_ff_reg_42_:CLK 4.395e-01
*RC product_mat_ff_reg_41_:CLK 4.395e-01
*RC product_mat_ff_reg_29_:CLK 4.395e-01
*RC product_mat_ff_reg_25_:CLK 4.395e-01
*RC product_mat_ff_reg_38_:CLK 4.395e-01
*RC product_mat_ff_reg_31_:CLK 4.395e-01
*RC product_mat_ff_reg_40_:CLK 4.395e-01
*RC product_mat_ff_reg_30_:CLK 4.395e-01
*RC product_mat_ff_reg_23_:CLK 4.395e-01
*RC product_mat_ff_reg_24_:CLK 4.395e-01
*RC product_mat_ff_reg_26_:CLK 4.395e-01
*RC product_exp_ff_reg_0_:CLK 4.323e-01
*RC odata_sig_ff_reg:CLK 4.323e-01
*RC product_sig_ff_reg:CLK 4.323e-01
*RC out_valid_stage_2_reg:CLK 4.323e-01
*RC odata_exp_ff_reg_0_:CLK 4.323e-01
*RC odata_exp_ff_reg_1_:CLK 4.323e-01
*RC odata_exp_ff_reg_2_:CLK 4.323e-01
*RC odata_exp_ff_reg_4_:CLK 4.323e-01
*RC odata_exp_ff_reg_6_:CLK 4.323e-01
*RC odata_exp_ff_reg_7_:CLK 4.323e-01
*RC odata_mat_ff_reg_22_:CLK 4.323e-01
*RC odata_mat_ff_reg_21_:CLK 4.323e-01
*RC odata_mat_ff_reg_20_:CLK 4.323e-01
*RC odata_mat_ff_reg_19_:CLK 4.323e-01
*RC odata_mat_ff_reg_18_:CLK 4.323e-01
*RC odata_mat_ff_reg_17_:CLK 4.323e-01
*RC odata_mat_ff_reg_16_:CLK 4.323e-01
*RC odata_mat_ff_reg_15_:CLK 4.323e-01
*RC odata_mat_ff_reg_14_:CLK 4.323e-01
*RC odata_mat_ff_reg_13_:CLK 4.323e-01
*RC odata_mat_ff_reg_12_:CLK 4.323e-01
*RC odata_mat_ff_reg_11_:CLK 4.323e-01
*RC odata_mat_ff_reg_10_:CLK 4.323e-01
*RC odata_mat_ff_reg_9_:CLK 4.323e-01
*RC odata_mat_ff_reg_8_:CLK 4.323e-01
*RC odata_mat_ff_reg_7_:CLK 4.323e-01
*RC odata_mat_ff_reg_6_:CLK 4.323e-01
*RC odata_mat_ff_reg_5_:CLK 4.323e-01
*RC odata_mat_ff_reg_4_:CLK 4.323e-01
*RC odata_mat_ff_reg_3_:CLK 4.323e-01
*RC odata_mat_ff_reg_2_:CLK 4.323e-01
*RC odata_mat_ff_reg_1_:CLK 4.323e-01
*RC odata_mat_ff_reg_0_:CLK 4.323e-01
*RC odata_exp_ff_reg_3_:CLK 4.323e-01
*RC odata_exp_ff_reg_5_:CLK 4.323e-01
*RC product_exp_ff_reg_8_:CLK 4.395e-01
*RC idataA_mat_ff_reg_10_:CLK 4.315e-01
*RC idataA_mat_ff_reg_11_:CLK 4.315e-01
*RC idataA_mat_ff_reg_16_:CLK 4.315e-01
*RC idataA_mat_ff_reg_6_:CLK 4.315e-01
*RC idataA_exp_ff_reg_0_:CLK 4.323e-01
*RC idataB_mat_ff_reg_8_:CLK 4.315e-01
*RC idataB_mat_ff_reg_22_:CLK 4.315e-01
*RC product_exp_ff_reg_1_:CLK 4.323e-01
*RC product_exp_ff_reg_2_:CLK 4.323e-01
*RC product_exp_ff_reg_3_:CLK 4.323e-01
*RC product_exp_ff_reg_4_:CLK 4.323e-01
*RC product_exp_ff_reg_5_:CLK 4.323e-01
*RC product_exp_ff_reg_6_:CLK 4.323e-01
*RC product_exp_ff_reg_7_:CLK 4.323e-01
*RC idataB_mat_ff_reg_1_:CLK 4.323e-01
*RC idataB_mat_ff_reg_4_:CLK 4.323e-01
*RC idataB_mat_ff_reg_5_:CLK 4.323e-01
*RC idataB_mat_ff_reg_6_:CLK 4.323e-01
*RC idataB_mat_ff_reg_9_:CLK 4.323e-01
*RC idataB_exp_ff_reg_0_:CLK 4.323e-01
*RC idataB_exp_ff_reg_1_:CLK 4.323e-01
*RC idataB_exp_ff_reg_2_:CLK 4.323e-01
*RC idataB_exp_ff_reg_3_:CLK 4.323e-01
*RC idataB_exp_ff_reg_4_:CLK 4.323e-01
*RC idataB_exp_ff_reg_5_:CLK 4.323e-01
*RC idataB_exp_ff_reg_6_:CLK 4.323e-01
*RC idataB_exp_ff_reg_7_:CLK 4.323e-01
*RC idataB_sig_ff_reg:CLK 4.323e-01
*RC idataA_mat_ff_reg_0_:CLK 4.323e-01
*RC idataA_mat_ff_reg_4_:CLK 4.323e-01
*RC idataA_exp_ff_reg_1_:CLK 4.323e-01
*RC idataA_exp_ff_reg_2_:CLK 4.323e-01
*RC idataA_exp_ff_reg_3_:CLK 4.323e-01
*RC idataA_exp_ff_reg_4_:CLK 4.323e-01
*RC idataA_exp_ff_reg_5_:CLK 4.323e-01
*RC idataA_exp_ff_reg_6_:CLK 4.323e-01
*RC idataA_exp_ff_reg_7_:CLK 4.323e-01
*RC idataA_sig_ff_reg:CLK 4.323e-01
*END

*R_NET reset 2.736e+00
*DRIVER reset
*CELL NBUFFX4_RVT
*C2_R1_C1 1.368e+00 2.192e-02 1.368e+00 
*LOADS
*RC U1785:A 5.999e-02
*END

*R_NET enable 2.803e+00
*DRIVER enable
*CELL NBUFFX4_RVT
*C2_R1_C1 1.401e+00 2.192e-02 1.401e+00 
*LOADS
*RC U1469:A1 6.145e-02
*END

*R_NET idataA\[31\] 2.382e+00
*DRIVER idataA\[31\]
*CELL NBUFFX4_RVT
*C2_R1_C1 1.191e+00 2.192e-02 1.191e+00 
*LOADS
*RC U1835:A2 5.223e-02
*END

*R_NET idataA\[30\] 2.382e+00
*DRIVER idataA\[30\]
*CELL NBUFFX4_RVT
*C2_R1_C1 1.191e+00 2.192e-02 1.191e+00 
*LOADS
*RC U1836:A2 5.223e-02
*END

*R_NET idataA\[29\] 2.382e+00
*DRIVER idataA\[29\]
*CELL NBUFFX4_RVT
*C2_R1_C1 1.191e+00 2.192e-02 1.191e+00 
*LOADS
*RC U1837:A2 5.223e-02
*END

*R_NET idataA\[28\] 2.382e+00
*DRIVER idataA\[28\]
*CELL NBUFFX4_RVT
*C2_R1_C1 1.191e+00 2.192e-02 1.191e+00 
*LOADS
*RC U1838:A2 5.223e-02
*END

*R_NET idataA\[27\] 2.382e+00
*DRIVER idataA\[27\]
*CELL NBUFFX4_RVT
*C2_R1_C1 1.191e+00 2.192e-02 1.191e+00 
*LOADS
*RC U1839:A2 5.223e-02
*END

*R_NET idataA\[26\] 2.382e+00
*DRIVER idataA\[26\]
*CELL NBUFFX4_RVT
*C2_R1_C1 1.191e+00 2.192e-02 1.191e+00 
*LOADS
*RC U1840:A2 5.223e-02
*END

*R_NET idataA\[25\] 2.382e+00
*DRIVER idataA\[25\]
*CELL NBUFFX4_RVT
*C2_R1_C1 1.191e+00 2.192e-02 1.191e+00 
*LOADS
*RC U1798:A2 5.223e-02
*END

*R_NET idataA\[24\] 2.382e+00
*DRIVER idataA\[24\]
*CELL NBUFFX4_RVT
*C2_R1_C1 1.191e+00 2.192e-02 1.191e+00 
*LOADS
*RC U1834:A2 5.223e-02
*END

*R_NET idataA\[23\] 2.382e+00
*DRIVER idataA\[23\]
*CELL NBUFFX4_RVT
*C2_R1_C1 1.191e+00 2.192e-02 1.191e+00 
*LOADS
*RC U1797:A2 5.223e-02
*END

*R_NET idataA\[22\] 2.382e+00
*DRIVER idataA\[22\]
*CELL NBUFFX4_RVT
*C2_R1_C1 1.191e+00 2.192e-02 1.191e+00 
*LOADS
*RC U1844:A2 5.223e-02
*END

*R_NET idataA\[21\] 2.382e+00
*DRIVER idataA\[21\]
*CELL NBUFFX4_RVT
*C2_R1_C1 1.191e+00 2.192e-02 1.191e+00 
*LOADS
*RC U1803:A2 5.223e-02
*END

*R_NET idataA\[20\] 2.382e+00
*DRIVER idataA\[20\]
*CELL NBUFFX4_RVT
*C2_R1_C1 1.191e+00 2.192e-02 1.191e+00 
*LOADS
*RC U1845:A2 5.223e-02
*END

*R_NET idataA\[19\] 2.382e+00
*DRIVER idataA\[19\]
*CELL NBUFFX4_RVT
*C2_R1_C1 1.191e+00 2.192e-02 1.191e+00 
*LOADS
*RC U1846:A2 5.223e-02
*END

*R_NET idataA\[18\] 2.382e+00
*DRIVER idataA\[18\]
*CELL NBUFFX4_RVT
*C2_R1_C1 1.191e+00 2.192e-02 1.191e+00 
*LOADS
*RC U1847:A2 5.223e-02
*END

*R_NET idataA\[17\] 2.382e+00
*DRIVER idataA\[17\]
*CELL NBUFFX4_RVT
*C2_R1_C1 1.191e+00 2.192e-02 1.191e+00 
*LOADS
*RC U1805:A2 5.223e-02
*END

*R_NET idataA\[16\] 2.382e+00
*DRIVER idataA\[16\]
*CELL NBUFFX4_RVT
*C2_R1_C1 1.191e+00 2.192e-02 1.191e+00 
*LOADS
*RC U1806:A2 5.223e-02
*END

*R_NET idataA\[15\] 2.382e+00
*DRIVER idataA\[15\]
*CELL NBUFFX4_RVT
*C2_R1_C1 1.191e+00 2.192e-02 1.191e+00 
*LOADS
*RC U1802:A2 5.223e-02
*END

*R_NET idataA\[14\] 2.382e+00
*DRIVER idataA\[14\]
*CELL NBUFFX4_RVT
*C2_R1_C1 1.191e+00 2.192e-02 1.191e+00 
*LOADS
*RC U1807:A2 5.223e-02
*END

*R_NET idataA\[13\] 2.382e+00
*DRIVER idataA\[13\]
*CELL NBUFFX4_RVT
*C2_R1_C1 1.191e+00 2.192e-02 1.191e+00 
*LOADS
*RC U1808:A2 5.223e-02
*END

*R_NET idataA\[12\] 2.382e+00
*DRIVER idataA\[12\]
*CELL NBUFFX4_RVT
*C2_R1_C1 1.191e+00 2.192e-02 1.191e+00 
*LOADS
*RC U1809:A2 5.223e-02
*END

*R_NET idataA\[11\] 2.382e+00
*DRIVER idataA\[11\]
*CELL NBUFFX4_RVT
*C2_R1_C1 1.191e+00 2.192e-02 1.191e+00 
*LOADS
*RC U1810:A2 5.223e-02
*END

*R_NET idataA\[10\] 2.382e+00
*DRIVER idataA\[10\]
*CELL NBUFFX4_RVT
*C2_R1_C1 1.191e+00 2.192e-02 1.191e+00 
*LOADS
*RC U1811:A2 5.223e-02
*END

*R_NET idataA\[9\] 2.382e+00
*DRIVER idataA\[9\]
*CELL NBUFFX4_RVT
*C2_R1_C1 1.191e+00 2.192e-02 1.191e+00 
*LOADS
*RC U1812:A2 5.223e-02
*END

*R_NET idataA\[8\] 2.382e+00
*DRIVER idataA\[8\]
*CELL NBUFFX4_RVT
*C2_R1_C1 1.191e+00 2.192e-02 1.191e+00 
*LOADS
*RC U1813:A2 5.223e-02
*END

*R_NET idataA\[7\] 2.382e+00
*DRIVER idataA\[7\]
*CELL NBUFFX4_RVT
*C2_R1_C1 1.191e+00 2.192e-02 1.191e+00 
*LOADS
*RC U1814:A2 5.223e-02
*END

*R_NET idataA\[6\] 2.382e+00
*DRIVER idataA\[6\]
*CELL NBUFFX4_RVT
*C2_R1_C1 1.191e+00 2.192e-02 1.191e+00 
*LOADS
*RC U1815:A2 5.223e-02
*END

*R_NET idataA\[5\] 2.382e+00
*DRIVER idataA\[5\]
*CELL NBUFFX4_RVT
*C2_R1_C1 1.191e+00 2.192e-02 1.191e+00 
*LOADS
*RC U1804:A2 5.223e-02
*END

*R_NET idataA\[4\] 2.382e+00
*DRIVER idataA\[4\]
*CELL NBUFFX4_RVT
*C2_R1_C1 1.191e+00 2.192e-02 1.191e+00 
*LOADS
*RC U1816:A2 5.223e-02
*END

*R_NET idataA\[3\] 2.382e+00
*DRIVER idataA\[3\]
*CELL NBUFFX4_RVT
*C2_R1_C1 1.191e+00 2.192e-02 1.191e+00 
*LOADS
*RC U1801:A2 5.223e-02
*END

*R_NET idataA\[2\] 2.382e+00
*DRIVER idataA\[2\]
*CELL NBUFFX4_RVT
*C2_R1_C1 1.191e+00 2.192e-02 1.191e+00 
*LOADS
*RC U1817:A2 5.223e-02
*END

*R_NET idataA\[1\] 2.382e+00
*DRIVER idataA\[1\]
*CELL NBUFFX4_RVT
*C2_R1_C1 1.191e+00 2.192e-02 1.191e+00 
*LOADS
*RC U1818:A2 5.223e-02
*END

*R_NET idataA\[0\] 2.382e+00
*DRIVER idataA\[0\]
*CELL NBUFFX4_RVT
*C2_R1_C1 1.191e+00 2.192e-02 1.191e+00 
*LOADS
*RC U1819:A2 5.223e-02
*END

*R_NET idataB\[31\] 2.382e+00
*DRIVER idataB\[31\]
*CELL NBUFFX4_RVT
*C2_R1_C1 1.191e+00 2.192e-02 1.191e+00 
*LOADS
*RC U1820:A2 5.223e-02
*END

*R_NET idataB\[30\] 2.382e+00
*DRIVER idataB\[30\]
*CELL NBUFFX4_RVT
*C2_R1_C1 1.191e+00 2.192e-02 1.191e+00 
*LOADS
*RC U1821:A2 5.223e-02
*END

*R_NET idataB\[29\] 2.382e+00
*DRIVER idataB\[29\]
*CELL NBUFFX4_RVT
*C2_R1_C1 1.191e+00 2.192e-02 1.191e+00 
*LOADS
*RC U1822:A2 5.223e-02
*END

*R_NET idataB\[28\] 2.382e+00
*DRIVER idataB\[28\]
*CELL NBUFFX4_RVT
*C2_R1_C1 1.191e+00 2.192e-02 1.191e+00 
*LOADS
*RC U1823:A2 5.223e-02
*END

*R_NET idataB\[27\] 2.382e+00
*DRIVER idataB\[27\]
*CELL NBUFFX4_RVT
*C2_R1_C1 1.191e+00 2.192e-02 1.191e+00 
*LOADS
*RC U1824:A2 5.223e-02
*END

*R_NET idataB\[26\] 2.382e+00
*DRIVER idataB\[26\]
*CELL NBUFFX4_RVT
*C2_R1_C1 1.191e+00 2.192e-02 1.191e+00 
*LOADS
*RC U1825:A2 5.223e-02
*END

*R_NET idataB\[25\] 2.382e+00
*DRIVER idataB\[25\]
*CELL NBUFFX4_RVT
*C2_R1_C1 1.191e+00 2.192e-02 1.191e+00 
*LOADS
*RC U1826:A2 5.223e-02
*END

*R_NET idataB\[24\] 2.382e+00
*DRIVER idataB\[24\]
*CELL NBUFFX4_RVT
*C2_R1_C1 1.191e+00 2.192e-02 1.191e+00 
*LOADS
*RC U1827:A2 5.223e-02
*END

*R_NET idataB\[23\] 2.382e+00
*DRIVER idataB\[23\]
*CELL NBUFFX4_RVT
*C2_R1_C1 1.191e+00 2.192e-02 1.191e+00 
*LOADS
*RC U1828:A2 5.223e-02
*END

*R_NET idataB\[22\] 2.382e+00
*DRIVER idataB\[22\]
*CELL NBUFFX4_RVT
*C2_R1_C1 1.191e+00 2.192e-02 1.191e+00 
*LOADS
*RC U1800:A2 5.223e-02
*END

*R_NET idataB\[21\] 2.382e+00
*DRIVER idataB\[21\]
*CELL NBUFFX4_RVT
*C2_R1_C1 1.191e+00 2.192e-02 1.191e+00 
*LOADS
*RC U1829:A2 5.223e-02
*END

*R_NET idataB\[20\] 2.382e+00
*DRIVER idataB\[20\]
*CELL NBUFFX4_RVT
*C2_R1_C1 1.191e+00 2.192e-02 1.191e+00 
*LOADS
*RC U1793:A2 5.223e-02
*END

*R_NET idataB\[19\] 2.382e+00
*DRIVER idataB\[19\]
*CELL NBUFFX4_RVT
*C2_R1_C1 1.191e+00 2.192e-02 1.191e+00 
*LOADS
*RC U1830:A2 5.223e-02
*END

*R_NET idataB\[18\] 2.382e+00
*DRIVER idataB\[18\]
*CELL NBUFFX4_RVT
*C2_R1_C1 1.191e+00 2.192e-02 1.191e+00 
*LOADS
*RC U1831:A2 5.223e-02
*END

*R_NET idataB\[17\] 2.382e+00
*DRIVER idataB\[17\]
*CELL NBUFFX4_RVT
*C2_R1_C1 1.191e+00 2.192e-02 1.191e+00 
*LOADS
*RC U1832:A2 5.223e-02
*END

*R_NET idataB\[16\] 2.382e+00
*DRIVER idataB\[16\]
*CELL NBUFFX4_RVT
*C2_R1_C1 1.191e+00 2.192e-02 1.191e+00 
*LOADS
*RC U1795:A2 5.223e-02
*END

*R_NET idataB\[15\] 2.382e+00
*DRIVER idataB\[15\]
*CELL NBUFFX4_RVT
*C2_R1_C1 1.191e+00 2.192e-02 1.191e+00 
*LOADS
*RC U1833:A2 5.223e-02
*END

*R_NET idataB\[14\] 2.382e+00
*DRIVER idataB\[14\]
*CELL NBUFFX4_RVT
*C2_R1_C1 1.191e+00 2.192e-02 1.191e+00 
*LOADS
*RC U1850:A2 5.223e-02
*END

*R_NET idataB\[13\] 2.382e+00
*DRIVER idataB\[13\]
*CELL NBUFFX4_RVT
*C2_R1_C1 1.191e+00 2.192e-02 1.191e+00 
*LOADS
*RC U1849:A2 5.223e-02
*END

*R_NET idataB\[12\] 2.382e+00
*DRIVER idataB\[12\]
*CELL NBUFFX4_RVT
*C2_R1_C1 1.191e+00 2.192e-02 1.191e+00 
*LOADS
*RC U1848:A2 5.223e-02
*END

*R_NET idataB\[11\] 2.382e+00
*DRIVER idataB\[11\]
*CELL NBUFFX4_RVT
*C2_R1_C1 1.191e+00 2.192e-02 1.191e+00 
*LOADS
*RC U1856:A2 5.223e-02
*END

*R_NET idataB\[10\] 2.382e+00
*DRIVER idataB\[10\]
*CELL NBUFFX4_RVT
*C2_R1_C1 1.191e+00 2.192e-02 1.191e+00 
*LOADS
*RC U1855:A2 5.223e-02
*END

*R_NET idataB\[9\] 2.382e+00
*DRIVER idataB\[9\]
*CELL NBUFFX4_RVT
*C2_R1_C1 1.191e+00 2.192e-02 1.191e+00 
*LOADS
*RC U1841:A2 5.223e-02
*END

*R_NET idataB\[8\] 2.382e+00
*DRIVER idataB\[8\]
*CELL NBUFFX4_RVT
*C2_R1_C1 1.191e+00 2.192e-02 1.191e+00 
*LOADS
*RC U1799:A2 5.223e-02
*END

*R_NET idataB\[7\] 2.382e+00
*DRIVER idataB\[7\]
*CELL NBUFFX4_RVT
*C2_R1_C1 1.191e+00 2.192e-02 1.191e+00 
*LOADS
*RC U1794:A2 5.223e-02
*END

*R_NET idataB\[6\] 2.382e+00
*DRIVER idataB\[6\]
*CELL NBUFFX4_RVT
*C2_R1_C1 1.191e+00 2.192e-02 1.191e+00 
*LOADS
*RC U1851:A2 5.223e-02
*END

*R_NET idataB\[5\] 2.382e+00
*DRIVER idataB\[5\]
*CELL NBUFFX4_RVT
*C2_R1_C1 1.191e+00 2.192e-02 1.191e+00 
*LOADS
*RC U1853:A2 5.223e-02
*END

*R_NET idataB\[4\] 2.382e+00
*DRIVER idataB\[4\]
*CELL NBUFFX4_RVT
*C2_R1_C1 1.191e+00 2.192e-02 1.191e+00 
*LOADS
*RC U1852:A2 5.223e-02
*END

*R_NET idataB\[3\] 2.382e+00
*DRIVER idataB\[3\]
*CELL NBUFFX4_RVT
*C2_R1_C1 1.191e+00 2.192e-02 1.191e+00 
*LOADS
*RC U1796:A2 5.223e-02
*END

*R_NET idataB\[2\] 2.382e+00
*DRIVER idataB\[2\]
*CELL NBUFFX4_RVT
*C2_R1_C1 1.191e+00 2.192e-02 1.191e+00 
*LOADS
*RC U1843:A2 5.223e-02
*END

*R_NET idataB\[1\] 2.382e+00
*DRIVER idataB\[1\]
*CELL NBUFFX4_RVT
*C2_R1_C1 1.191e+00 2.192e-02 1.191e+00 
*LOADS
*RC U1842:A2 5.223e-02
*END

*R_NET idataB\[0\] 2.382e+00
*DRIVER idataB\[0\]
*CELL NBUFFX4_RVT
*C2_R1_C1 1.191e+00 2.192e-02 1.191e+00 
*LOADS
*RC U1854:A2 5.223e-02
*END

*R_NET odata\[31\] 3.043e-01
*DRIVER U1884:Y
*CELL AND2X1_RVT
*C2_R1_C1 1.522e-01 2.192e-02 1.522e-01 
*LOADS
*RC odata\[31\] 6.673e-03
*END

*R_NET odata\[30\] 3.043e-01
*DRIVER U1874:Y
*CELL AND2X1_RVT
*C2_R1_C1 1.522e-01 2.192e-02 1.522e-01 
*LOADS
*RC odata\[30\] 6.673e-03
*END

*R_NET odata\[29\] 3.043e-01
*DRIVER U1875:Y
*CELL AND2X1_RVT
*C2_R1_C1 1.522e-01 2.192e-02 1.522e-01 
*LOADS
*RC odata\[29\] 6.673e-03
*END

*R_NET odata\[28\] 3.043e-01
*DRIVER U1876:Y
*CELL AND2X1_RVT
*C2_R1_C1 1.522e-01 2.192e-02 1.522e-01 
*LOADS
*RC odata\[28\] 6.673e-03
*END

*R_NET odata\[27\] 3.043e-01
*DRIVER U1866:Y
*CELL AND2X1_RVT
*C2_R1_C1 1.522e-01 2.192e-02 1.522e-01 
*LOADS
*RC odata\[27\] 6.673e-03
*END

*R_NET odata\[26\] 3.043e-01
*DRIVER U1867:Y
*CELL AND2X1_RVT
*C2_R1_C1 1.522e-01 2.192e-02 1.522e-01 
*LOADS
*RC odata\[26\] 6.673e-03
*END

*R_NET odata\[25\] 3.043e-01
*DRIVER U1868:Y
*CELL AND2X1_RVT
*C2_R1_C1 1.522e-01 2.192e-02 1.522e-01 
*LOADS
*RC odata\[25\] 6.673e-03
*END

*R_NET odata\[24\] 3.043e-01
*DRIVER U1869:Y
*CELL AND2X1_RVT
*C2_R1_C1 1.522e-01 2.192e-02 1.522e-01 
*LOADS
*RC odata\[24\] 6.673e-03
*END

*R_NET odata\[23\] 3.043e-01
*DRIVER U1870:Y
*CELL AND2X1_RVT
*C2_R1_C1 1.522e-01 2.192e-02 1.522e-01 
*LOADS
*RC odata\[23\] 6.673e-03
*END

*R_NET odata\[22\] 3.043e-01
*DRIVER U1871:Y
*CELL AND2X1_RVT
*C2_R1_C1 1.522e-01 2.192e-02 1.522e-01 
*LOADS
*RC odata\[22\] 6.673e-03
*END

*R_NET odata\[21\] 3.043e-01
*DRIVER U1872:Y
*CELL AND2X1_RVT
*C2_R1_C1 1.522e-01 2.192e-02 1.522e-01 
*LOADS
*RC odata\[21\] 6.673e-03
*END

*R_NET odata\[20\] 3.043e-01
*DRIVER U1873:Y
*CELL AND2X1_RVT
*C2_R1_C1 1.522e-01 2.192e-02 1.522e-01 
*LOADS
*RC odata\[20\] 6.673e-03
*END

*R_NET odata\[19\] 3.043e-01
*DRIVER U1885:Y
*CELL AND2X1_RVT
*C2_R1_C1 1.522e-01 2.192e-02 1.522e-01 
*LOADS
*RC odata\[19\] 6.673e-03
*END

*R_NET odata\[18\] 3.043e-01
*DRIVER U1886:Y
*CELL AND2X1_RVT
*C2_R1_C1 1.522e-01 2.192e-02 1.522e-01 
*LOADS
*RC odata\[18\] 6.673e-03
*END

*R_NET odata\[17\] 3.043e-01
*DRIVER U1887:Y
*CELL AND2X1_RVT
*C2_R1_C1 1.522e-01 2.192e-02 1.522e-01 
*LOADS
*RC odata\[17\] 6.673e-03
*END

*R_NET odata\[16\] 3.043e-01
*DRIVER U1888:Y
*CELL AND2X1_RVT
*C2_R1_C1 1.522e-01 2.192e-02 1.522e-01 
*LOADS
*RC odata\[16\] 6.673e-03
*END

*R_NET odata\[15\] 3.043e-01
*DRIVER U1889:Y
*CELL AND2X1_RVT
*C2_R1_C1 1.522e-01 2.192e-02 1.522e-01 
*LOADS
*RC odata\[15\] 6.673e-03
*END

*R_NET odata\[14\] 3.043e-01
*DRIVER U1890:Y
*CELL AND2X1_RVT
*C2_R1_C1 1.522e-01 2.192e-02 1.522e-01 
*LOADS
*RC odata\[14\] 6.673e-03
*END

*R_NET odata\[13\] 3.043e-01
*DRIVER U1891:Y
*CELL AND2X1_RVT
*C2_R1_C1 1.522e-01 2.192e-02 1.522e-01 
*LOADS
*RC odata\[13\] 6.673e-03
*END

*R_NET odata\[12\] 3.043e-01
*DRIVER U1883:Y
*CELL AND2X1_RVT
*C2_R1_C1 1.522e-01 2.192e-02 1.522e-01 
*LOADS
*RC odata\[12\] 6.673e-03
*END

*R_NET odata\[11\] 3.043e-01
*DRIVER U1893:Y
*CELL AND2X1_RVT
*C2_R1_C1 1.522e-01 2.192e-02 1.522e-01 
*LOADS
*RC odata\[11\] 6.673e-03
*END

*R_NET odata\[10\] 3.043e-01
*DRIVER U1894:Y
*CELL AND2X1_RVT
*C2_R1_C1 1.522e-01 2.192e-02 1.522e-01 
*LOADS
*RC odata\[10\] 6.673e-03
*END

*R_NET odata\[9\] 3.043e-01
*DRIVER U1895:Y
*CELL AND2X1_RVT
*C2_R1_C1 1.522e-01 2.192e-02 1.522e-01 
*LOADS
*RC odata\[9\] 6.673e-03
*END

*R_NET odata\[8\] 3.043e-01
*DRIVER U1892:Y
*CELL AND2X1_RVT
*C2_R1_C1 1.522e-01 2.192e-02 1.522e-01 
*LOADS
*RC odata\[8\] 6.673e-03
*END

*R_NET odata\[7\] 3.043e-01
*DRIVER U1877:Y
*CELL AND2X1_RVT
*C2_R1_C1 1.522e-01 2.192e-02 1.522e-01 
*LOADS
*RC odata\[7\] 6.673e-03
*END

*R_NET odata\[6\] 3.043e-01
*DRIVER U1878:Y
*CELL AND2X1_RVT
*C2_R1_C1 1.522e-01 2.192e-02 1.522e-01 
*LOADS
*RC odata\[6\] 6.673e-03
*END

*R_NET odata\[5\] 3.043e-01
*DRIVER U1879:Y
*CELL AND2X1_RVT
*C2_R1_C1 1.522e-01 2.192e-02 1.522e-01 
*LOADS
*RC odata\[5\] 6.673e-03
*END

*R_NET odata\[4\] 3.043e-01
*DRIVER U1880:Y
*CELL AND2X1_RVT
*C2_R1_C1 1.522e-01 2.192e-02 1.522e-01 
*LOADS
*RC odata\[4\] 6.673e-03
*END

*R_NET odata\[3\] 3.043e-01
*DRIVER U1881:Y
*CELL AND2X1_RVT
*C2_R1_C1 1.522e-01 2.192e-02 1.522e-01 
*LOADS
*RC odata\[3\] 6.673e-03
*END

*R_NET odata\[2\] 3.043e-01
*DRIVER U1882:Y
*CELL AND2X1_RVT
*C2_R1_C1 1.522e-01 2.192e-02 1.522e-01 
*LOADS
*RC odata\[2\] 6.673e-03
*END

*R_NET odata\[1\] 3.043e-01
*DRIVER U1865:Y
*CELL AND2X1_RVT
*C2_R1_C1 1.522e-01 2.192e-02 1.522e-01 
*LOADS
*RC odata\[1\] 6.673e-03
*END

*R_NET odata\[0\] 3.043e-01
*DRIVER U1864:Y
*CELL AND2X1_RVT
*C2_R1_C1 1.522e-01 2.192e-02 1.522e-01 
*LOADS
*RC odata\[0\] 6.673e-03
*END

*R_NET out_valid 3.043e-01
*DRIVER out_valid_stage_3_reg:QN
*CELL DFFSSRX1_RVT
*C2_R1_C1 1.522e-01 2.192e-02 1.522e-01 
*LOADS
*RC out_valid 6.673e-03
*END

*R_NET idataA_sig_ff 2.094e+00
*DRIVER idataA_sig_ff_reg:Q
*CELL DFFX1_RVT
*C2_R1_C1 1.047e+00 2.192e-02 1.047e+00 
*LOADS
*RC U2017:A1 4.591e-02
*END

*R_NET idataA_exp_ff\[7\] 1.077e+01
*DRIVER idataA_exp_ff_reg_7_:Q
*CELL DFFX1_RVT
*C2_R1_C1 5.384e+00 5.002e-02 5.384e+00 
*LOADS
*RC U1859:A4 7.268e-02
*RC U1984:B 1.966e-01
*END

*R_NET idataA_exp_ff\[6\] 1.045e+01
*DRIVER idataA_exp_ff_reg_6_:Q
*CELL DFFX1_RVT
*C2_R1_C1 5.226e+00 5.002e-02 5.226e+00 
*LOADS
*RC U1859:A3 6.477e-02
*RC U2015:B 1.966e-01
*END

*R_NET idataA_exp_ff\[5\] 1.029e+01
*DRIVER idataA_exp_ff_reg_5_:Q
*CELL DFFX1_RVT
*C2_R1_C1 5.144e+00 5.002e-02 5.144e+00 
*LOADS
*RC U1859:A2 6.069e-02
*RC U2013:B 1.966e-01
*END

*R_NET idataA_exp_ff\[4\] 1.031e+01
*DRIVER idataA_exp_ff_reg_4_:Q
*CELL DFFX1_RVT
*C2_R1_C1 5.155e+00 5.002e-02 5.155e+00 
*LOADS
*RC U1859:A1 6.123e-02
*RC U2011:B 1.966e-01
*END

*R_NET idataA_exp_ff\[3\] 1.077e+01
*DRIVER idataA_exp_ff_reg_3_:Q
*CELL DFFX1_RVT
*C2_R1_C1 5.384e+00 5.002e-02 5.384e+00 
*LOADS
*RC U1860:A4 7.268e-02
*RC U2009:B 1.966e-01
*END

*R_NET idataA_exp_ff\[2\] 1.045e+01
*DRIVER idataA_exp_ff_reg_2_:Q
*CELL DFFX1_RVT
*C2_R1_C1 5.226e+00 5.002e-02 5.226e+00 
*LOADS
*RC U1860:A3 6.477e-02
*RC U2007:B 1.966e-01
*END

*R_NET idataA_exp_ff\[1\] 1.313e+01
*DRIVER idataA_exp_ff_reg_1_:Q
*CELL DFFX1_RVT
*C2_R1_C1 6.565e+00 1.158e-01 6.565e+00 
*LOADS
*RC U1860:A2 7.026e-02
*RC U1898:A3 6.707e-02
*RC U1898:A1 7.001e-02
*RC U2005:CI 1.727e-01
*END

*R_NET idataA_exp_ff\[0\] 7.717e+00
*DRIVER idataA_exp_ff_reg_0_:Q
*CELL DFFX1_RVT
*C2_R1_C1 3.859e+00 8.117e-02 3.859e+00 
*LOADS
*RC U195:A1 7.693e-02
*RC U1860:A1 6.626e-02
*RC U1897:A1 6.561e-02
*END

*R_NET idataA_mat_ff\[23\] 8.262e+00
*DRIVER idataA_mat_ff_reg_23_:Q
*CELL DFFX2_RVT
*C2_R1_C1 4.131e+00 8.117e-02 4.131e+00 
*LOADS
*RC U1062:A1 1.523e-01
*RC U669:A 1.892e-02
*RC U671:A 5.244e-02
*END

*R_NET idataA_mat_ff\[22\] 8.863e+00
*DRIVER idataA_mat_ff_reg_22_:Q
*CELL DFFX1_RVT
*C2_R1_C1 4.432e+00 5.002e-02 4.432e+00 
*LOADS
*RC U1062:A2 1.111e-01
*RC U1120:A1 1.105e-01
*END

*R_NET idataA_mat_ff\[21\] 5.286e+00
*DRIVER idataA_mat_ff_reg_21_:Q
*CELL DFFX2_RVT
*C2_R1_C1 2.643e+00 5.002e-02 2.643e+00 
*LOADS
*RC U630:A 1.748e-02
*RC U1120:A2 1.148e-01
*END

*R_NET idataA_mat_ff\[20\] 9.034e+00
*DRIVER idataA_mat_ff_reg_20_:Q
*CELL DFFX2_RVT
*C2_R1_C1 4.517e+00 5.002e-02 4.517e+00 
*LOADS
*RC U1462:A2 1.148e-01
*RC U1512:A2 1.111e-01
*END

*R_NET idataA_mat_ff\[19\] 1.937e+00
*DRIVER idataA_mat_ff_reg_19_:Q
*CELL DFFX2_RVT
*C2_R1_C1 9.685e-01 2.192e-02 9.685e-01 
*LOADS
*RC U455:A 4.247e-02
*END

*R_NET idataA_mat_ff\[18\] 1.022e+01
*DRIVER idataA_mat_ff_reg_18_:Q
*CELL DFFX1_RVT
*C2_R1_C1 5.110e+00 5.002e-02 5.110e+00 
*LOADS
*RC U713:A2 1.148e-01
*RC U1370:A1 1.408e-01
*END

*R_NET idataA_mat_ff\[17\] 9.633e+00
*DRIVER idataA_mat_ff_reg_17_:Q
*CELL DFFX2_RVT
*C2_R1_C1 4.817e+00 1.158e-01 4.817e+00 
*LOADS
*RC U397:A 3.901e-02
*RC U667:A 5.610e-02
*RC U666:A 5.610e-02
*RC U713:A1 1.279e-01
*END

*R_NET idataA_mat_ff\[16\] 9.034e+00
*DRIVER idataA_mat_ff_reg_16_:Q
*CELL DFFX2_RVT
*C2_R1_C1 4.517e+00 5.002e-02 4.517e+00 
*LOADS
*RC U1436:A2 1.111e-01
*RC U1517:A2 1.148e-01
*END

*R_NET idataA_mat_ff\[15\] 1.078e+01
*DRIVER idataA_mat_ff_reg_15_:Q
*CELL DFFX1_RVT
*C2_R1_C1 5.388e+00 8.117e-02 5.388e+00 
*LOADS
*RC U1117:A 5.244e-02
*RC U1511:A1 1.196e-01
*RC U1517:A1 1.196e-01
*END

*R_NET idataA_mat_ff\[14\] 9.034e+00
*DRIVER idataA_mat_ff_reg_14_:Q
*CELL DFFX2_RVT
*C2_R1_C1 4.517e+00 5.002e-02 4.517e+00 
*LOADS
*RC U1510:A2 1.111e-01
*RC U1511:A2 1.148e-01
*END

*R_NET idataA_mat_ff\[13\] 3.827e+01
*DRIVER idataA_mat_ff_reg_13_:Q
*CELL DFFX1_RVT
*C2_R1_C1 1.913e+01 2.964e-01 1.913e+01 
*LOADS
*RC U1068:B0 1.600e-01
*RC U1182:A1 2.087e-01
*RC U1121:A 4.999e-02
*RC U1201:A1 2.087e-01
*RC U1254:A1 2.087e-01
*RC U1265:A1 2.087e-01
*RC U1270:A1 2.087e-01
*RC U1555:A2 1.647e-01
*END
