*SPEF "IEEE 1481-1999"
*DESIGN "fp_mul"
*DATE "Tue Nov 12 13:34:59 2024"
*VENDOR "SYNOPSYS INC"
*PROGRAM "Synopsys Design Compiler"
*VERSION "V-2023.12-SP5"
*DESIGN_FLOW "SYNTHESIS"
*DIVIDER /
*DELIMITER :
*BUS_DELIMITER []
*T_UNIT 1.0 NS
*C_UNIT 1.0 PF
*R_UNIT 1.0 KOHM
*L_UNIT 1.0 HENRY

*PORTS

clk I *L 0.000e+00 *S 0.000e+00 0.000e+00 
reset I *L 0.000e+00 *S 0.000e+00 0.000e+00 
enable I *L 0.000e+00 *S 0.000e+00 0.000e+00 
idataA\[31\] I *L 0.000e+00 *S 0.000e+00 0.000e+00 
idataA\[30\] I *L 0.000e+00 *S 0.000e+00 0.000e+00 
idataA\[29\] I *L 0.000e+00 *S 0.000e+00 0.000e+00 
idataA\[28\] I *L 0.000e+00 *S 0.000e+00 0.000e+00 
idataA\[27\] I *L 0.000e+00 *S 0.000e+00 0.000e+00 
idataA\[26\] I *L 0.000e+00 *S 0.000e+00 0.000e+00 
idataA\[25\] I *L 0.000e+00 *S 0.000e+00 0.000e+00 
idataA\[24\] I *L 0.000e+00 *S 0.000e+00 0.000e+00 
idataA\[23\] I *L 0.000e+00 *S 0.000e+00 0.000e+00 
idataA\[22\] I *L 0.000e+00 *S 0.000e+00 0.000e+00 
idataA\[21\] I *L 0.000e+00 *S 0.000e+00 0.000e+00 
idataA\[20\] I *L 0.000e+00 *S 0.000e+00 0.000e+00 
idataA\[19\] I *L 0.000e+00 *S 0.000e+00 0.000e+00 
idataA\[18\] I *L 0.000e+00 *S 0.000e+00 0.000e+00 
idataA\[17\] I *L 0.000e+00 *S 0.000e+00 0.000e+00 
idataA\[16\] I *L 0.000e+00 *S 0.000e+00 0.000e+00 
idataA\[15\] I *L 0.000e+00 *S 0.000e+00 0.000e+00 
idataA\[14\] I *L 0.000e+00 *S 0.000e+00 0.000e+00 
idataA\[13\] I *L 0.000e+00 *S 0.000e+00 0.000e+00 
idataA\[12\] I *L 0.000e+00 *S 0.000e+00 0.000e+00 
idataA\[11\] I *L 0.000e+00 *S 0.000e+00 0.000e+00 
idataA\[10\] I *L 0.000e+00 *S 0.000e+00 0.000e+00 
idataA\[9\] I *L 0.000e+00 *S 0.000e+00 0.000e+00 
idataA\[8\] I *L 0.000e+00 *S 0.000e+00 0.000e+00 
idataA\[7\] I *L 0.000e+00 *S 0.000e+00 0.000e+00 
idataA\[6\] I *L 0.000e+00 *S 0.000e+00 0.000e+00 
idataA\[5\] I *L 0.000e+00 *S 0.000e+00 0.000e+00 
idataA\[4\] I *L 0.000e+00 *S 0.000e+00 0.000e+00 
idataA\[3\] I *L 0.000e+00 *S 0.000e+00 0.000e+00 
idataA\[2\] I *L 0.000e+00 *S 0.000e+00 0.000e+00 
idataA\[1\] I *L 0.000e+00 *S 0.000e+00 0.000e+00 
idataA\[0\] I *L 0.000e+00 *S 0.000e+00 0.000e+00 
idataB\[31\] I *L 0.000e+00 *S 0.000e+00 0.000e+00 
idataB\[30\] I *L 0.000e+00 *S 0.000e+00 0.000e+00 
idataB\[29\] I *L 0.000e+00 *S 0.000e+00 0.000e+00 
idataB\[28\] I *L 0.000e+00 *S 0.000e+00 0.000e+00 
idataB\[27\] I *L 0.000e+00 *S 0.000e+00 0.000e+00 
idataB\[26\] I *L 0.000e+00 *S 0.000e+00 0.000e+00 
idataB\[25\] I *L 0.000e+00 *S 0.000e+00 0.000e+00 
idataB\[24\] I *L 0.000e+00 *S 0.000e+00 0.000e+00 
idataB\[23\] I *L 0.000e+00 *S 0.000e+00 0.000e+00 
idataB\[22\] I *L 0.000e+00 *S 0.000e+00 0.000e+00 
idataB\[21\] I *L 0.000e+00 *S 0.000e+00 0.000e+00 
idataB\[20\] I *L 0.000e+00 *S 0.000e+00 0.000e+00 
idataB\[19\] I *L 0.000e+00 *S 0.000e+00 0.000e+00 
idataB\[18\] I *L 0.000e+00 *S 0.000e+00 0.000e+00 
idataB\[17\] I *L 0.000e+00 *S 0.000e+00 0.000e+00 
idataB\[16\] I *L 0.000e+00 *S 0.000e+00 0.000e+00 
idataB\[15\] I *L 0.000e+00 *S 0.000e+00 0.000e+00 
idataB\[14\] I *L 0.000e+00 *S 0.000e+00 0.000e+00 
idataB\[13\] I *L 0.000e+00 *S 0.000e+00 0.000e+00 
idataB\[12\] I *L 0.000e+00 *S 0.000e+00 0.000e+00 
idataB\[11\] I *L 0.000e+00 *S 0.000e+00 0.000e+00 
idataB\[10\] I *L 0.000e+00 *S 0.000e+00 0.000e+00 
idataB\[9\] I *L 0.000e+00 *S 0.000e+00 0.000e+00 
idataB\[8\] I *L 0.000e+00 *S 0.000e+00 0.000e+00 
idataB\[7\] I *L 0.000e+00 *S 0.000e+00 0.000e+00 
idataB\[6\] I *L 0.000e+00 *S 0.000e+00 0.000e+00 
idataB\[5\] I *L 0.000e+00 *S 0.000e+00 0.000e+00 
idataB\[4\] I *L 0.000e+00 *S 0.000e+00 0.000e+00 
idataB\[3\] I *L 0.000e+00 *S 0.000e+00 0.000e+00 
idataB\[2\] I *L 0.000e+00 *S 0.000e+00 0.000e+00 
idataB\[1\] I *L 0.000e+00 *S 0.000e+00 0.000e+00 
idataB\[0\] I *L 0.000e+00 *S 0.000e+00 0.000e+00 
odata\[31\] O *L 3.000e-01 *S 0.000e+00 0.000e+00 
odata\[30\] O *L 3.000e-01 *S 0.000e+00 0.000e+00 
odata\[29\] O *L 3.000e-01 *S 0.000e+00 0.000e+00 
odata\[28\] O *L 3.000e-01 *S 0.000e+00 0.000e+00 
odata\[27\] O *L 3.000e-01 *S 0.000e+00 0.000e+00 
odata\[26\] O *L 3.000e-01 *S 0.000e+00 0.000e+00 
odata\[25\] O *L 3.000e-01 *S 0.000e+00 0.000e+00 
odata\[24\] O *L 3.000e-01 *S 0.000e+00 0.000e+00 
odata\[23\] O *L 3.000e-01 *S 0.000e+00 0.000e+00 
odata\[22\] O *L 3.000e-01 *S 0.000e+00 0.000e+00 
odata\[21\] O *L 3.000e-01 *S 0.000e+00 0.000e+00 
odata\[20\] O *L 3.000e-01 *S 0.000e+00 0.000e+00 
odata\[19\] O *L 3.000e-01 *S 0.000e+00 0.000e+00 
odata\[18\] O *L 3.000e-01 *S 0.000e+00 0.000e+00 
odata\[17\] O *L 3.000e-01 *S 0.000e+00 0.000e+00 
odata\[16\] O *L 3.000e-01 *S 0.000e+00 0.000e+00 
odata\[15\] O *L 3.000e-01 *S 0.000e+00 0.000e+00 
odata\[14\] O *L 3.000e-01 *S 0.000e+00 0.000e+00 
odata\[13\] O *L 3.000e-01 *S 0.000e+00 0.000e+00 
odata\[12\] O *L 3.000e-01 *S 0.000e+00 0.000e+00 
odata\[11\] O *L 3.000e-01 *S 0.000e+00 0.000e+00 
odata\[10\] O *L 3.000e-01 *S 0.000e+00 0.000e+00 
odata\[9\] O *L 3.000e-01 *S 0.000e+00 0.000e+00 
odata\[8\] O *L 3.000e-01 *S 0.000e+00 0.000e+00 
odata\[7\] O *L 3.000e-01 *S 0.000e+00 0.000e+00 
odata\[6\] O *L 3.000e-01 *S 0.000e+00 0.000e+00 
odata\[5\] O *L 3.000e-01 *S 0.000e+00 0.000e+00 
odata\[4\] O *L 3.000e-01 *S 0.000e+00 0.000e+00 
odata\[3\] O *L 3.000e-01 *S 0.000e+00 0.000e+00 
odata\[2\] O *L 3.000e-01 *S 0.000e+00 0.000e+00 
odata\[1\] O *L 3.000e-01 *S 0.000e+00 0.000e+00 
odata\[0\] O *L 3.000e-01 *S 0.000e+00 0.000e+00 
out_valid O *L 3.000e-01 *S 0.000e+00 0.000e+00 

*R_NET N0 0.000e+00
*DRIVER B_0:Z
*CELL GTECH_BUF
*C2_R1_C1 0.000e+00 0.000e+00 0.000e+00 
*LOADS
*RC C306:CONTROL1_0 0.000e+00
*RC C305:CONTROL1_0 0.000e+00
*RC C304:CONTROL1_0 0.000e+00
*RC C303:CONTROL1_0 0.000e+00
*RC C300:CONTROL1_0 0.000e+00
*RC C299:CONTROL1_0 0.000e+00
*RC C298:CONTROL1_0 0.000e+00
*RC C297:CONTROL1_0 0.000e+00
*RC C296:CONTROL1_0 0.000e+00
*RC C295:CONTROL1_0 0.000e+00
*RC C294:CONTROL1_0 0.000e+00
*RC C293:CONTROL1_0 0.000e+00
*RC C291:CONTROL1_0 0.000e+00
*RC C290:CONTROL1_0 0.000e+00
*END

*R_NET N1 0.000e+00
*DRIVER B_1:Z
*CELL GTECH_BUF
*C2_R1_C1 0.000e+00 0.000e+00 0.000e+00 
*LOADS
*RC C302:CONTROL1_0 0.000e+00
*RC C301:CONTROL1_0 0.000e+00
*END

*R_NET N2 0.000e+00
*DRIVER B_2:Z
*CELL GTECH_BUF
*C2_R1_C1 0.000e+00 0.000e+00 0.000e+00 
*LOADS
*RC C307:CONTROL1_0 0.000e+00
*END

*R_NET clk 0.000e+00
*DRIVER clk
*CELL NULL
*C2_R1_C1 0.000e+00 0.000e+00 0.000e+00 
*LOADS
*RC odata_mat_ff_reg_0_:clocked_on 0.000e+00
*RC odata_mat_ff_reg_1_:clocked_on 0.000e+00
*RC odata_mat_ff_reg_2_:clocked_on 0.000e+00
*RC odata_mat_ff_reg_3_:clocked_on 0.000e+00
*RC odata_mat_ff_reg_4_:clocked_on 0.000e+00
*RC odata_mat_ff_reg_5_:clocked_on 0.000e+00
*RC odata_mat_ff_reg_6_:clocked_on 0.000e+00
*RC odata_mat_ff_reg_7_:clocked_on 0.000e+00
*RC odata_mat_ff_reg_8_:clocked_on 0.000e+00
*RC odata_mat_ff_reg_9_:clocked_on 0.000e+00
*RC odata_mat_ff_reg_10_:clocked_on 0.000e+00
*RC odata_mat_ff_reg_11_:clocked_on 0.000e+00
*RC odata_mat_ff_reg_12_:clocked_on 0.000e+00
*RC odata_mat_ff_reg_13_:clocked_on 0.000e+00
*RC odata_mat_ff_reg_14_:clocked_on 0.000e+00
*RC odata_mat_ff_reg_15_:clocked_on 0.000e+00
*RC odata_mat_ff_reg_16_:clocked_on 0.000e+00
*RC odata_mat_ff_reg_17_:clocked_on 0.000e+00
*RC odata_mat_ff_reg_18_:clocked_on 0.000e+00
*RC odata_mat_ff_reg_19_:clocked_on 0.000e+00
*RC odata_mat_ff_reg_20_:clocked_on 0.000e+00
*RC odata_mat_ff_reg_21_:clocked_on 0.000e+00
*RC odata_mat_ff_reg_22_:clocked_on 0.000e+00
*RC odata_exp_ff_reg_0_:clocked_on 0.000e+00
*RC odata_exp_ff_reg_1_:clocked_on 0.000e+00
*RC odata_exp_ff_reg_2_:clocked_on 0.000e+00
*RC odata_exp_ff_reg_3_:clocked_on 0.000e+00
*RC odata_exp_ff_reg_4_:clocked_on 0.000e+00
*RC odata_exp_ff_reg_5_:clocked_on 0.000e+00
*RC odata_exp_ff_reg_6_:clocked_on 0.000e+00
*RC odata_exp_ff_reg_7_:clocked_on 0.000e+00
*RC odata_sig_ff_reg:clocked_on 0.000e+00
*RC out_valid_stage_3_reg:clocked_on 0.000e+00
*RC product_mat_ff_reg_23_:clocked_on 0.000e+00
*RC product_mat_ff_reg_24_:clocked_on 0.000e+00
*RC product_mat_ff_reg_25_:clocked_on 0.000e+00
*RC product_mat_ff_reg_26_:clocked_on 0.000e+00
*RC product_mat_ff_reg_27_:clocked_on 0.000e+00
*RC product_mat_ff_reg_28_:clocked_on 0.000e+00
*RC product_mat_ff_reg_29_:clocked_on 0.000e+00
*RC product_mat_ff_reg_30_:clocked_on 0.000e+00
*RC product_mat_ff_reg_31_:clocked_on 0.000e+00
*RC product_mat_ff_reg_32_:clocked_on 0.000e+00
*RC product_mat_ff_reg_33_:clocked_on 0.000e+00
*RC product_mat_ff_reg_34_:clocked_on 0.000e+00
*RC product_mat_ff_reg_35_:clocked_on 0.000e+00
*RC product_mat_ff_reg_36_:clocked_on 0.000e+00
*RC product_mat_ff_reg_37_:clocked_on 0.000e+00
*RC product_mat_ff_reg_38_:clocked_on 0.000e+00
*RC product_mat_ff_reg_39_:clocked_on 0.000e+00
*RC product_mat_ff_reg_40_:clocked_on 0.000e+00
*RC product_mat_ff_reg_41_:clocked_on 0.000e+00
*RC product_mat_ff_reg_42_:clocked_on 0.000e+00
*RC product_mat_ff_reg_43_:clocked_on 0.000e+00
*RC product_mat_ff_reg_44_:clocked_on 0.000e+00
*RC product_mat_ff_reg_45_:clocked_on 0.000e+00
*RC product_mat_ff_reg_46_:clocked_on 0.000e+00
*RC product_mat_ff_reg_47_:clocked_on 0.000e+00
*RC product_exp_ff_reg_0_:clocked_on 0.000e+00
*RC product_exp_ff_reg_1_:clocked_on 0.000e+00
*RC product_exp_ff_reg_2_:clocked_on 0.000e+00
*RC product_exp_ff_reg_3_:clocked_on 0.000e+00
*RC product_exp_ff_reg_4_:clocked_on 0.000e+00
*RC product_exp_ff_reg_5_:clocked_on 0.000e+00
*RC product_exp_ff_reg_6_:clocked_on 0.000e+00
*RC product_exp_ff_reg_7_:clocked_on 0.000e+00
*RC product_exp_ff_reg_8_:clocked_on 0.000e+00
*RC product_sig_ff_reg:clocked_on 0.000e+00
*RC out_valid_stage_2_reg:clocked_on 0.000e+00
*RC idataB_mat_ff_reg_0_:clocked_on 0.000e+00
*RC idataB_mat_ff_reg_1_:clocked_on 0.000e+00
*RC idataB_mat_ff_reg_2_:clocked_on 0.000e+00
*RC idataB_mat_ff_reg_3_:clocked_on 0.000e+00
*RC idataB_mat_ff_reg_4_:clocked_on 0.000e+00
*RC idataB_mat_ff_reg_5_:clocked_on 0.000e+00
*RC idataB_mat_ff_reg_6_:clocked_on 0.000e+00
*RC idataB_mat_ff_reg_7_:clocked_on 0.000e+00
*RC idataB_mat_ff_reg_8_:clocked_on 0.000e+00
*RC idataB_mat_ff_reg_9_:clocked_on 0.000e+00
*RC idataB_mat_ff_reg_10_:clocked_on 0.000e+00
*RC idataB_mat_ff_reg_11_:clocked_on 0.000e+00
*RC idataB_mat_ff_reg_12_:clocked_on 0.000e+00
*RC idataB_mat_ff_reg_13_:clocked_on 0.000e+00
*RC idataB_mat_ff_reg_14_:clocked_on 0.000e+00
*RC idataB_mat_ff_reg_15_:clocked_on 0.000e+00
*RC idataB_mat_ff_reg_16_:clocked_on 0.000e+00
*RC idataB_mat_ff_reg_17_:clocked_on 0.000e+00
*RC idataB_mat_ff_reg_18_:clocked_on 0.000e+00
*RC idataB_mat_ff_reg_19_:clocked_on 0.000e+00
*RC idataB_mat_ff_reg_20_:clocked_on 0.000e+00
*RC idataB_mat_ff_reg_21_:clocked_on 0.000e+00
*RC idataB_mat_ff_reg_22_:clocked_on 0.000e+00
*RC idataB_mat_ff_reg_23_:clocked_on 0.000e+00
*RC idataB_exp_ff_reg_0_:clocked_on 0.000e+00
*RC idataB_exp_ff_reg_1_:clocked_on 0.000e+00
*RC idataB_exp_ff_reg_2_:clocked_on 0.000e+00
*RC idataB_exp_ff_reg_3_:clocked_on 0.000e+00
*RC idataB_exp_ff_reg_4_:clocked_on 0.000e+00
*RC idataB_exp_ff_reg_5_:clocked_on 0.000e+00
*RC idataB_exp_ff_reg_6_:clocked_on 0.000e+00
*RC idataB_exp_ff_reg_7_:clocked_on 0.000e+00
*RC idataB_sig_ff_reg:clocked_on 0.000e+00
*RC idataA_mat_ff_reg_0_:clocked_on 0.000e+00
*RC idataA_mat_ff_reg_1_:clocked_on 0.000e+00
*RC idataA_mat_ff_reg_2_:clocked_on 0.000e+00
*RC idataA_mat_ff_reg_3_:clocked_on 0.000e+00
*RC idataA_mat_ff_reg_4_:clocked_on 0.000e+00
*RC idataA_mat_ff_reg_5_:clocked_on 0.000e+00
*RC idataA_mat_ff_reg_6_:clocked_on 0.000e+00
*RC idataA_mat_ff_reg_7_:clocked_on 0.000e+00
*RC idataA_mat_ff_reg_8_:clocked_on 0.000e+00
*RC idataA_mat_ff_reg_9_:clocked_on 0.000e+00
*RC idataA_mat_ff_reg_10_:clocked_on 0.000e+00
*RC idataA_mat_ff_reg_11_:clocked_on 0.000e+00
*RC idataA_mat_ff_reg_12_:clocked_on 0.000e+00
*RC idataA_mat_ff_reg_13_:clocked_on 0.000e+00
*RC idataA_mat_ff_reg_14_:clocked_on 0.000e+00
*RC idataA_mat_ff_reg_15_:clocked_on 0.000e+00
*RC idataA_mat_ff_reg_16_:clocked_on 0.000e+00
*RC idataA_mat_ff_reg_17_:clocked_on 0.000e+00
*RC idataA_mat_ff_reg_18_:clocked_on 0.000e+00
*RC idataA_mat_ff_reg_19_:clocked_on 0.000e+00
*RC idataA_mat_ff_reg_20_:clocked_on 0.000e+00
*RC idataA_mat_ff_reg_21_:clocked_on 0.000e+00
*RC idataA_mat_ff_reg_22_:clocked_on 0.000e+00
*RC idataA_mat_ff_reg_23_:clocked_on 0.000e+00
*RC idataA_exp_ff_reg_0_:clocked_on 0.000e+00
*RC idataA_exp_ff_reg_1_:clocked_on 0.000e+00
*RC idataA_exp_ff_reg_2_:clocked_on 0.000e+00
*RC idataA_exp_ff_reg_3_:clocked_on 0.000e+00
*RC idataA_exp_ff_reg_4_:clocked_on 0.000e+00
*RC idataA_exp_ff_reg_5_:clocked_on 0.000e+00
*RC idataA_exp_ff_reg_6_:clocked_on 0.000e+00
*RC idataA_exp_ff_reg_7_:clocked_on 0.000e+00
*RC idataA_sig_ff_reg:clocked_on 0.000e+00
*RC out_valid_stage_1_reg:clocked_on 0.000e+00
*END

*R_NET reset 0.000e+00
*DRIVER reset
*CELL NULL
*C2_R1_C1 0.000e+00 0.000e+00 0.000e+00 
*LOADS
*RC C310:A 0.000e+00
*END

*R_NET enable 0.000e+00
*DRIVER enable
*CELL NULL
*C2_R1_C1 0.000e+00 0.000e+00 0.000e+00 
*LOADS
*RC I_3:A 0.000e+00
*END

*R_NET idataA\[31\] 0.000e+00
*DRIVER idataA\[31\]
*CELL NULL
*C2_R1_C1 0.000e+00 0.000e+00 0.000e+00 
*LOADS
*RC C290:DATA2_0 0.000e+00
*END

*R_NET idataA\[30\] 0.000e+00
*DRIVER idataA\[30\]
*CELL NULL
*C2_R1_C1 0.000e+00 0.000e+00 0.000e+00 
*LOADS
*RC C291:DATA2_7 0.000e+00
*END

*R_NET idataA\[29\] 0.000e+00
*DRIVER idataA\[29\]
*CELL NULL
*C2_R1_C1 0.000e+00 0.000e+00 0.000e+00 
*LOADS
*RC C291:DATA2_6 0.000e+00
*END

*R_NET idataA\[28\] 0.000e+00
*DRIVER idataA\[28\]
*CELL NULL
*C2_R1_C1 0.000e+00 0.000e+00 0.000e+00 
*LOADS
*RC C291:DATA2_5 0.000e+00
*END

*R_NET idataA\[27\] 0.000e+00
*DRIVER idataA\[27\]
*CELL NULL
*C2_R1_C1 0.000e+00 0.000e+00 0.000e+00 
*LOADS
*RC C291:DATA2_4 0.000e+00
*END

*R_NET idataA\[26\] 0.000e+00
*DRIVER idataA\[26\]
*CELL NULL
*C2_R1_C1 0.000e+00 0.000e+00 0.000e+00 
*LOADS
*RC C291:DATA2_3 0.000e+00
*END

*R_NET idataA\[25\] 0.000e+00
*DRIVER idataA\[25\]
*CELL NULL
*C2_R1_C1 0.000e+00 0.000e+00 0.000e+00 
*LOADS
*RC C291:DATA2_2 0.000e+00
*END

*R_NET idataA\[24\] 0.000e+00
*DRIVER idataA\[24\]
*CELL NULL
*C2_R1_C1 0.000e+00 0.000e+00 0.000e+00 
*LOADS
*RC C291:DATA2_1 0.000e+00
*END

*R_NET idataA\[23\] 0.000e+00
*DRIVER idataA\[23\]
*CELL NULL
*C2_R1_C1 0.000e+00 0.000e+00 0.000e+00 
*LOADS
*RC C291:DATA2_0 0.000e+00
*END

*R_NET idataA\[22\] 0.000e+00
*DRIVER idataA\[22\]
*CELL NULL
*C2_R1_C1 0.000e+00 0.000e+00 0.000e+00 
*LOADS
*RC C293:DATA2_22 0.000e+00
*END

*R_NET idataA\[21\] 0.000e+00
*DRIVER idataA\[21\]
*CELL NULL
*C2_R1_C1 0.000e+00 0.000e+00 0.000e+00 
*LOADS
*RC C293:DATA2_21 0.000e+00
*END

*R_NET idataA\[20\] 0.000e+00
*DRIVER idataA\[20\]
*CELL NULL
*C2_R1_C1 0.000e+00 0.000e+00 0.000e+00 
*LOADS
*RC C293:DATA2_20 0.000e+00
*END

*R_NET idataA\[19\] 0.000e+00
*DRIVER idataA\[19\]
*CELL NULL
*C2_R1_C1 0.000e+00 0.000e+00 0.000e+00 
*LOADS
*RC C293:DATA2_19 0.000e+00
*END

*R_NET idataA\[18\] 0.000e+00
*DRIVER idataA\[18\]
*CELL NULL
*C2_R1_C1 0.000e+00 0.000e+00 0.000e+00 
*LOADS
*RC C293:DATA2_18 0.000e+00
*END

*R_NET idataA\[17\] 0.000e+00
*DRIVER idataA\[17\]
*CELL NULL
*C2_R1_C1 0.000e+00 0.000e+00 0.000e+00 
*LOADS
*RC C293:DATA2_17 0.000e+00
*END

*R_NET idataA\[16\] 0.000e+00
*DRIVER idataA\[16\]
*CELL NULL
*C2_R1_C1 0.000e+00 0.000e+00 0.000e+00 
*LOADS
*RC C293:DATA2_16 0.000e+00
*END

*R_NET idataA\[15\] 0.000e+00
*DRIVER idataA\[15\]
*CELL NULL
*C2_R1_C1 0.000e+00 0.000e+00 0.000e+00 
*LOADS
*RC C293:DATA2_15 0.000e+00
*END

*R_NET idataA\[14\] 0.000e+00
*DRIVER idataA\[14\]
*CELL NULL
*C2_R1_C1 0.000e+00 0.000e+00 0.000e+00 
*LOADS
*RC C293:DATA2_14 0.000e+00
*END

*R_NET idataA\[13\] 0.000e+00
*DRIVER idataA\[13\]
*CELL NULL
*C2_R1_C1 0.000e+00 0.000e+00 0.000e+00 
*LOADS
*RC C293:DATA2_13 0.000e+00
*END

*R_NET idataA\[12\] 0.000e+00
*DRIVER idataA\[12\]
*CELL NULL
*C2_R1_C1 0.000e+00 0.000e+00 0.000e+00 
*LOADS
*RC C293:DATA2_12 0.000e+00
*END

*R_NET idataA\[11\] 0.000e+00
*DRIVER idataA\[11\]
*CELL NULL
*C2_R1_C1 0.000e+00 0.000e+00 0.000e+00 
*LOADS
*RC C293:DATA2_11 0.000e+00
*END

*R_NET idataA\[10\] 0.000e+00
*DRIVER idataA\[10\]
*CELL NULL
*C2_R1_C1 0.000e+00 0.000e+00 0.000e+00 
*LOADS
*RC C293:DATA2_10 0.000e+00
*END

*R_NET idataA\[9\] 0.000e+00
*DRIVER idataA\[9\]
*CELL NULL
*C2_R1_C1 0.000e+00 0.000e+00 0.000e+00 
*LOADS
*RC C293:DATA2_9 0.000e+00
*END

*R_NET idataA\[8\] 0.000e+00
*DRIVER idataA\[8\]
*CELL NULL
*C2_R1_C1 0.000e+00 0.000e+00 0.000e+00 
*LOADS
*RC C293:DATA2_8 0.000e+00
*END

*R_NET idataA\[7\] 0.000e+00
*DRIVER idataA\[7\]
*CELL NULL
*C2_R1_C1 0.000e+00 0.000e+00 0.000e+00 
*LOADS
*RC C293:DATA2_7 0.000e+00
*END

*R_NET idataA\[6\] 0.000e+00
*DRIVER idataA\[6\]
*CELL NULL
*C2_R1_C1 0.000e+00 0.000e+00 0.000e+00 
*LOADS
*RC C293:DATA2_6 0.000e+00
*END

*R_NET idataA\[5\] 0.000e+00
*DRIVER idataA\[5\]
*CELL NULL
*C2_R1_C1 0.000e+00 0.000e+00 0.000e+00 
*LOADS
*RC C293:DATA2_5 0.000e+00
*END

*R_NET idataA\[4\] 0.000e+00
*DRIVER idataA\[4\]
*CELL NULL
*C2_R1_C1 0.000e+00 0.000e+00 0.000e+00 
*LOADS
*RC C293:DATA2_4 0.000e+00
*END

*R_NET idataA\[3\] 0.000e+00
*DRIVER idataA\[3\]
*CELL NULL
*C2_R1_C1 0.000e+00 0.000e+00 0.000e+00 
*LOADS
*RC C293:DATA2_3 0.000e+00
*END

*R_NET idataA\[2\] 0.000e+00
*DRIVER idataA\[2\]
*CELL NULL
*C2_R1_C1 0.000e+00 0.000e+00 0.000e+00 
*LOADS
*RC C293:DATA2_2 0.000e+00
*END

*R_NET idataA\[1\] 0.000e+00
*DRIVER idataA\[1\]
*CELL NULL
*C2_R1_C1 0.000e+00 0.000e+00 0.000e+00 
*LOADS
*RC C293:DATA2_1 0.000e+00
*END

*R_NET idataA\[0\] 0.000e+00
*DRIVER idataA\[0\]
*CELL NULL
*C2_R1_C1 0.000e+00 0.000e+00 0.000e+00 
*LOADS
*RC C293:DATA2_0 0.000e+00
*END

*R_NET idataB\[31\] 0.000e+00
*DRIVER idataB\[31\]
*CELL NULL
*C2_R1_C1 0.000e+00 0.000e+00 0.000e+00 
*LOADS
*RC C294:DATA2_0 0.000e+00
*END

*R_NET idataB\[30\] 0.000e+00
*DRIVER idataB\[30\]
*CELL NULL
*C2_R1_C1 0.000e+00 0.000e+00 0.000e+00 
*LOADS
*RC C295:DATA2_7 0.000e+00
*END

*R_NET idataB\[29\] 0.000e+00
*DRIVER idataB\[29\]
*CELL NULL
*C2_R1_C1 0.000e+00 0.000e+00 0.000e+00 
*LOADS
*RC C295:DATA2_6 0.000e+00
*END

*R_NET idataB\[28\] 0.000e+00
*DRIVER idataB\[28\]
*CELL NULL
*C2_R1_C1 0.000e+00 0.000e+00 0.000e+00 
*LOADS
*RC C295:DATA2_5 0.000e+00
*END

*R_NET idataB\[27\] 0.000e+00
*DRIVER idataB\[27\]
*CELL NULL
*C2_R1_C1 0.000e+00 0.000e+00 0.000e+00 
*LOADS
*RC C295:DATA2_4 0.000e+00
*END

*R_NET idataB\[26\] 0.000e+00
*DRIVER idataB\[26\]
*CELL NULL
*C2_R1_C1 0.000e+00 0.000e+00 0.000e+00 
*LOADS
*RC C295:DATA2_3 0.000e+00
*END

*R_NET idataB\[25\] 0.000e+00
*DRIVER idataB\[25\]
*CELL NULL
*C2_R1_C1 0.000e+00 0.000e+00 0.000e+00 
*LOADS
*RC C295:DATA2_2 0.000e+00
*END

*R_NET idataB\[24\] 0.000e+00
*DRIVER idataB\[24\]
*CELL NULL
*C2_R1_C1 0.000e+00 0.000e+00 0.000e+00 
*LOADS
*RC C295:DATA2_1 0.000e+00
*END

*R_NET idataB\[23\] 0.000e+00
*DRIVER idataB\[23\]
*CELL NULL
*C2_R1_C1 0.000e+00 0.000e+00 0.000e+00 
*LOADS
*RC C295:DATA2_0 0.000e+00
*END

*R_NET idataB\[22\] 0.000e+00
*DRIVER idataB\[22\]
*CELL NULL
*C2_R1_C1 0.000e+00 0.000e+00 0.000e+00 
*LOADS
*RC C296:DATA2_22 0.000e+00
*END

*R_NET idataB\[21\] 0.000e+00
*DRIVER idataB\[21\]
*CELL NULL
*C2_R1_C1 0.000e+00 0.000e+00 0.000e+00 
*LOADS
*RC C296:DATA2_21 0.000e+00
*END

*R_NET idataB\[20\] 0.000e+00
*DRIVER idataB\[20\]
*CELL NULL
*C2_R1_C1 0.000e+00 0.000e+00 0.000e+00 
*LOADS
*RC C296:DATA2_20 0.000e+00
*END

*R_NET idataB\[19\] 0.000e+00
*DRIVER idataB\[19\]
*CELL NULL
*C2_R1_C1 0.000e+00 0.000e+00 0.000e+00 
*LOADS
*RC C296:DATA2_19 0.000e+00
*END

*R_NET idataB\[18\] 0.000e+00
*DRIVER idataB\[18\]
*CELL NULL
*C2_R1_C1 0.000e+00 0.000e+00 0.000e+00 
*LOADS
*RC C296:DATA2_18 0.000e+00
*END

*R_NET idataB\[17\] 0.000e+00
*DRIVER idataB\[17\]
*CELL NULL
*C2_R1_C1 0.000e+00 0.000e+00 0.000e+00 
*LOADS
*RC C296:DATA2_17 0.000e+00
*END

*R_NET idataB\[16\] 0.000e+00
*DRIVER idataB\[16\]
*CELL NULL
*C2_R1_C1 0.000e+00 0.000e+00 0.000e+00 
*LOADS
*RC C296:DATA2_16 0.000e+00
*END

*R_NET idataB\[15\] 0.000e+00
*DRIVER idataB\[15\]
*CELL NULL
*C2_R1_C1 0.000e+00 0.000e+00 0.000e+00 
*LOADS
*RC C296:DATA2_15 0.000e+00
*END

*R_NET idataB\[14\] 0.000e+00
*DRIVER idataB\[14\]
*CELL NULL
*C2_R1_C1 0.000e+00 0.000e+00 0.000e+00 
*LOADS
*RC C296:DATA2_14 0.000e+00
*END

*R_NET idataB\[13\] 0.000e+00
*DRIVER idataB\[13\]
*CELL NULL
*C2_R1_C1 0.000e+00 0.000e+00 0.000e+00 
*LOADS
*RC C296:DATA2_13 0.000e+00
*END

*R_NET idataB\[12\] 0.000e+00
*DRIVER idataB\[12\]
*CELL NULL
*C2_R1_C1 0.000e+00 0.000e+00 0.000e+00 
*LOADS
*RC C296:DATA2_12 0.000e+00
*END

*R_NET idataB\[11\] 0.000e+00
*DRIVER idataB\[11\]
*CELL NULL
*C2_R1_C1 0.000e+00 0.000e+00 0.000e+00 
*LOADS
*RC C296:DATA2_11 0.000e+00
*END

*R_NET idataB\[10\] 0.000e+00
*DRIVER idataB\[10\]
*CELL NULL
*C2_R1_C1 0.000e+00 0.000e+00 0.000e+00 
*LOADS
*RC C296:DATA2_10 0.000e+00
*END

*R_NET idataB\[9\] 0.000e+00
*DRIVER idataB\[9\]
*CELL NULL
*C2_R1_C1 0.000e+00 0.000e+00 0.000e+00 
*LOADS
*RC C296:DATA2_9 0.000e+00
*END

*R_NET idataB\[8\] 0.000e+00
*DRIVER idataB\[8\]
*CELL NULL
*C2_R1_C1 0.000e+00 0.000e+00 0.000e+00 
*LOADS
*RC C296:DATA2_8 0.000e+00
*END

*R_NET idataB\[7\] 0.000e+00
*DRIVER idataB\[7\]
*CELL NULL
*C2_R1_C1 0.000e+00 0.000e+00 0.000e+00 
*LOADS
*RC C296:DATA2_7 0.000e+00
*END

*R_NET idataB\[6\] 0.000e+00
*DRIVER idataB\[6\]
*CELL NULL
*C2_R1_C1 0.000e+00 0.000e+00 0.000e+00 
*LOADS
*RC C296:DATA2_6 0.000e+00
*END

*R_NET idataB\[5\] 0.000e+00
*DRIVER idataB\[5\]
*CELL NULL
*C2_R1_C1 0.000e+00 0.000e+00 0.000e+00 
*LOADS
*RC C296:DATA2_5 0.000e+00
*END

*R_NET idataB\[4\] 0.000e+00
*DRIVER idataB\[4\]
*CELL NULL
*C2_R1_C1 0.000e+00 0.000e+00 0.000e+00 
*LOADS
*RC C296:DATA2_4 0.000e+00
*END

*R_NET idataB\[3\] 0.000e+00
*DRIVER idataB\[3\]
*CELL NULL
*C2_R1_C1 0.000e+00 0.000e+00 0.000e+00 
*LOADS
*RC C296:DATA2_3 0.000e+00
*END

*R_NET idataB\[2\] 0.000e+00
*DRIVER idataB\[2\]
*CELL NULL
*C2_R1_C1 0.000e+00 0.000e+00 0.000e+00 
*LOADS
*RC C296:DATA2_2 0.000e+00
*END

*R_NET idataB\[1\] 0.000e+00
*DRIVER idataB\[1\]
*CELL NULL
*C2_R1_C1 0.000e+00 0.000e+00 0.000e+00 
*LOADS
*RC C296:DATA2_1 0.000e+00
*END

*R_NET idataB\[0\] 0.000e+00
*DRIVER idataB\[0\]
*CELL NULL
*C2_R1_C1 0.000e+00 0.000e+00 0.000e+00 
*LOADS
*RC C296:DATA2_0 0.000e+00
*END

*R_NET odata\[31\] 3.000e-01
*DRIVER C307:Z_31
*CELL \*SELECT_OP_4\.32_4\.1_32
*C2_R1_C1 1.500e-01 0.000e+00 1.500e-01 
*LOADS
*RC odata\[31\] 0.000e+00
*END

*R_NET odata\[30\] 3.000e-01
*DRIVER C307:Z_30
*CELL \*SELECT_OP_4\.32_4\.1_32
*C2_R1_C1 1.500e-01 0.000e+00 1.500e-01 
*LOADS
*RC odata\[30\] 0.000e+00
*END

*R_NET odata\[29\] 3.000e-01
*DRIVER C307:Z_29
*CELL \*SELECT_OP_4\.32_4\.1_32
*C2_R1_C1 1.500e-01 0.000e+00 1.500e-01 
*LOADS
*RC odata\[29\] 0.000e+00
*END

*R_NET odata\[28\] 3.000e-01
*DRIVER C307:Z_28
*CELL \*SELECT_OP_4\.32_4\.1_32
*C2_R1_C1 1.500e-01 0.000e+00 1.500e-01 
*LOADS
*RC odata\[28\] 0.000e+00
*END

*R_NET odata\[27\] 3.000e-01
*DRIVER C307:Z_27
*CELL \*SELECT_OP_4\.32_4\.1_32
*C2_R1_C1 1.500e-01 0.000e+00 1.500e-01 
*LOADS
*RC odata\[27\] 0.000e+00
*END

*R_NET odata\[26\] 3.000e-01
*DRIVER C307:Z_26
*CELL \*SELECT_OP_4\.32_4\.1_32
*C2_R1_C1 1.500e-01 0.000e+00 1.500e-01 
*LOADS
*RC odata\[26\] 0.000e+00
*END

*R_NET odata\[25\] 3.000e-01
*DRIVER C307:Z_25
*CELL \*SELECT_OP_4\.32_4\.1_32
*C2_R1_C1 1.500e-01 0.000e+00 1.500e-01 
*LOADS
*RC odata\[25\] 0.000e+00
*END

*R_NET odata\[24\] 3.000e-01
*DRIVER C307:Z_24
*CELL \*SELECT_OP_4\.32_4\.1_32
*C2_R1_C1 1.500e-01 0.000e+00 1.500e-01 
*LOADS
*RC odata\[24\] 0.000e+00
*END

*R_NET odata\[23\] 3.000e-01
*DRIVER C307:Z_23
*CELL \*SELECT_OP_4\.32_4\.1_32
*C2_R1_C1 1.500e-01 0.000e+00 1.500e-01 
*LOADS
*RC odata\[23\] 0.000e+00
*END

*R_NET odata\[22\] 3.000e-01
*DRIVER C307:Z_22
*CELL \*SELECT_OP_4\.32_4\.1_32
*C2_R1_C1 1.500e-01 0.000e+00 1.500e-01 
*LOADS
*RC odata\[22\] 0.000e+00
*END

*R_NET odata\[21\] 3.000e-01
*DRIVER C307:Z_21
*CELL \*SELECT_OP_4\.32_4\.1_32
*C2_R1_C1 1.500e-01 0.000e+00 1.500e-01 
*LOADS
*RC odata\[21\] 0.000e+00
*END

*R_NET odata\[20\] 3.000e-01
*DRIVER C307:Z_20
*CELL \*SELECT_OP_4\.32_4\.1_32
*C2_R1_C1 1.500e-01 0.000e+00 1.500e-01 
*LOADS
*RC odata\[20\] 0.000e+00
*END

*R_NET odata\[19\] 3.000e-01
*DRIVER C307:Z_19
*CELL \*SELECT_OP_4\.32_4\.1_32
*C2_R1_C1 1.500e-01 0.000e+00 1.500e-01 
*LOADS
*RC odata\[19\] 0.000e+00
*END

*R_NET odata\[18\] 3.000e-01
*DRIVER C307:Z_18
*CELL \*SELECT_OP_4\.32_4\.1_32
*C2_R1_C1 1.500e-01 0.000e+00 1.500e-01 
*LOADS
*RC odata\[18\] 0.000e+00
*END

*R_NET odata\[17\] 3.000e-01
*DRIVER C307:Z_17
*CELL \*SELECT_OP_4\.32_4\.1_32
*C2_R1_C1 1.500e-01 0.000e+00 1.500e-01 
*LOADS
*RC odata\[17\] 0.000e+00
*END

*R_NET odata\[16\] 3.000e-01
*DRIVER C307:Z_16
*CELL \*SELECT_OP_4\.32_4\.1_32
*C2_R1_C1 1.500e-01 0.000e+00 1.500e-01 
*LOADS
*RC odata\[16\] 0.000e+00
*END

*R_NET odata\[15\] 3.000e-01
*DRIVER C307:Z_15
*CELL \*SELECT_OP_4\.32_4\.1_32
*C2_R1_C1 1.500e-01 0.000e+00 1.500e-01 
*LOADS
*RC odata\[15\] 0.000e+00
*END

*R_NET odata\[14\] 3.000e-01
*DRIVER C307:Z_14
*CELL \*SELECT_OP_4\.32_4\.1_32
*C2_R1_C1 1.500e-01 0.000e+00 1.500e-01 
*LOADS
*RC odata\[14\] 0.000e+00
*END

*R_NET odata\[13\] 3.000e-01
*DRIVER C307:Z_13
*CELL \*SELECT_OP_4\.32_4\.1_32
*C2_R1_C1 1.500e-01 0.000e+00 1.500e-01 
*LOADS
*RC odata\[13\] 0.000e+00
*END

*R_NET odata\[12\] 3.000e-01
*DRIVER C307:Z_12
*CELL \*SELECT_OP_4\.32_4\.1_32
*C2_R1_C1 1.500e-01 0.000e+00 1.500e-01 
*LOADS
*RC odata\[12\] 0.000e+00
*END

*R_NET odata\[11\] 3.000e-01
*DRIVER C307:Z_11
*CELL \*SELECT_OP_4\.32_4\.1_32
*C2_R1_C1 1.500e-01 0.000e+00 1.500e-01 
*LOADS
*RC odata\[11\] 0.000e+00
*END

*R_NET odata\[10\] 3.000e-01
*DRIVER C307:Z_10
*CELL \*SELECT_OP_4\.32_4\.1_32
*C2_R1_C1 1.500e-01 0.000e+00 1.500e-01 
*LOADS
*RC odata\[10\] 0.000e+00
*END

*R_NET odata\[9\] 3.000e-01
*DRIVER C307:Z_9
*CELL \*SELECT_OP_4\.32_4\.1_32
*C2_R1_C1 1.500e-01 0.000e+00 1.500e-01 
*LOADS
*RC odata\[9\] 0.000e+00
*END

*R_NET odata\[8\] 3.000e-01
*DRIVER C307:Z_8
*CELL \*SELECT_OP_4\.32_4\.1_32
*C2_R1_C1 1.500e-01 0.000e+00 1.500e-01 
*LOADS
*RC odata\[8\] 0.000e+00
*END

*R_NET odata\[7\] 3.000e-01
*DRIVER C307:Z_7
*CELL \*SELECT_OP_4\.32_4\.1_32
*C2_R1_C1 1.500e-01 0.000e+00 1.500e-01 
*LOADS
*RC odata\[7\] 0.000e+00
*END

*R_NET odata\[6\] 3.000e-01
*DRIVER C307:Z_6
*CELL \*SELECT_OP_4\.32_4\.1_32
*C2_R1_C1 1.500e-01 0.000e+00 1.500e-01 
*LOADS
*RC odata\[6\] 0.000e+00
*END

*R_NET odata\[5\] 3.000e-01
*DRIVER C307:Z_5
*CELL \*SELECT_OP_4\.32_4\.1_32
*C2_R1_C1 1.500e-01 0.000e+00 1.500e-01 
*LOADS
*RC odata\[5\] 0.000e+00
*END

*R_NET odata\[4\] 3.000e-01
*DRIVER C307:Z_4
*CELL \*SELECT_OP_4\.32_4\.1_32
*C2_R1_C1 1.500e-01 0.000e+00 1.500e-01 
*LOADS
*RC odata\[4\] 0.000e+00
*END

*R_NET odata\[3\] 3.000e-01
*DRIVER C307:Z_3
*CELL \*SELECT_OP_4\.32_4\.1_32
*C2_R1_C1 1.500e-01 0.000e+00 1.500e-01 
*LOADS
*RC odata\[3\] 0.000e+00
*END

*R_NET odata\[2\] 3.000e-01
*DRIVER C307:Z_2
*CELL \*SELECT_OP_4\.32_4\.1_32
*C2_R1_C1 1.500e-01 0.000e+00 1.500e-01 
*LOADS
*RC odata\[2\] 0.000e+00
*END

*R_NET odata\[1\] 3.000e-01
*DRIVER C307:Z_1
*CELL \*SELECT_OP_4\.32_4\.1_32
*C2_R1_C1 1.500e-01 0.000e+00 1.500e-01 
*LOADS
*RC odata\[1\] 0.000e+00
*END

*R_NET odata\[0\] 3.000e-01
*DRIVER C307:Z_0
*CELL \*SELECT_OP_4\.32_4\.1_32
*C2_R1_C1 1.500e-01 0.000e+00 1.500e-01 
*LOADS
*RC odata\[0\] 0.000e+00
*END

*R_NET out_valid 3.000e-01
*DRIVER out_valid_stage_3_reg:Q
*CELL \*\*SEQGEN\*\*
*C2_R1_C1 1.500e-01 0.000e+00 1.500e-01 
*LOADS
*RC out_valid 0.000e+00
*END

*R_NET N3 0.000e+00
*DRIVER C310:Z
*CELL GTECH_OR2
*C2_R1_C1 0.000e+00 0.000e+00 0.000e+00 
*LOADS
*RC I_4:A 0.000e+00
*RC I_2:A 0.000e+00
*RC B_0:A 0.000e+00
*END

*R_NET N4 0.000e+00
*DRIVER I_4:Z
*CELL GTECH_NOT
*C2_R1_C1 0.000e+00 0.000e+00 0.000e+00 
*LOADS
*RC C306:CONTROL2_0 0.000e+00
*RC C305:CONTROL2_0 0.000e+00
*RC C304:CONTROL2_0 0.000e+00
*RC C303:CONTROL2_0 0.000e+00
*RC C300:CONTROL2_0 0.000e+00
*RC C299:CONTROL2_0 0.000e+00
*RC C298:CONTROL2_0 0.000e+00
*RC C297:CONTROL2_0 0.000e+00
*RC C296:CONTROL2_0 0.000e+00
*RC C295:CONTROL2_0 0.000e+00
*RC C294:CONTROL2_0 0.000e+00
*RC C293:CONTROL2_0 0.000e+00
*RC C291:CONTROL2_0 0.000e+00
*RC C290:CONTROL2_0 0.000e+00
*END

*R_NET idataA_sig_ff 0.000e+00
*DRIVER idataA_sig_ff_reg:Q
*CELL \*\*SEQGEN\*\*
*C2_R1_C1 0.000e+00 0.000e+00 0.000e+00 
*LOADS
*RC C314:A 0.000e+00
*END

*R_NET idataA_exp_ff\[7\] 0.000e+00
*DRIVER idataA_exp_ff_reg_7_:Q
*CELL \*\*SEQGEN\*\*
*C2_R1_C1 0.000e+00 0.000e+00 0.000e+00 
*LOADS
*RC add_67:A_7 0.000e+00
*RC C282:B 0.000e+00
*END

*R_NET idataA_exp_ff\[6\] 0.000e+00
*DRIVER idataA_exp_ff_reg_6_:Q
*CELL \*\*SEQGEN\*\*
*C2_R1_C1 0.000e+00 0.000e+00 0.000e+00 
*LOADS
*RC add_67:A_6 0.000e+00
*RC C282:A 0.000e+00
*END

*R_NET idataA_exp_ff\[5\] 0.000e+00
*DRIVER idataA_exp_ff_reg_5_:Q
*CELL \*\*SEQGEN\*\*
*C2_R1_C1 0.000e+00 0.000e+00 0.000e+00 
*LOADS
*RC add_67:A_5 0.000e+00
*RC C283:A 0.000e+00
*END

*R_NET idataA_exp_ff\[4\] 0.000e+00
*DRIVER idataA_exp_ff_reg_4_:Q
*CELL \*\*SEQGEN\*\*
*C2_R1_C1 0.000e+00 0.000e+00 0.000e+00 
*LOADS
*RC add_67:A_4 0.000e+00
*RC C284:A 0.000e+00
*END

*R_NET idataA_exp_ff\[3\] 0.000e+00
*DRIVER idataA_exp_ff_reg_3_:Q
*CELL \*\*SEQGEN\*\*
*C2_R1_C1 0.000e+00 0.000e+00 0.000e+00 
*LOADS
*RC add_67:A_3 0.000e+00
*RC C285:A 0.000e+00
*END

*R_NET idataA_exp_ff\[2\] 0.000e+00
*DRIVER idataA_exp_ff_reg_2_:Q
*CELL \*\*SEQGEN\*\*
*C2_R1_C1 0.000e+00 0.000e+00 0.000e+00 
*LOADS
*RC add_67:A_2 0.000e+00
*RC C286:A 0.000e+00
*END

*R_NET idataA_exp_ff\[1\] 0.000e+00
*DRIVER idataA_exp_ff_reg_1_:Q
*CELL \*\*SEQGEN\*\*
*C2_R1_C1 0.000e+00 0.000e+00 0.000e+00 
*LOADS
*RC add_67:A_1 0.000e+00
*RC C287:A 0.000e+00
*END

*R_NET idataA_exp_ff\[0\] 0.000e+00
*DRIVER idataA_exp_ff_reg_0_:Q
*CELL \*\*SEQGEN\*\*
*C2_R1_C1 0.000e+00 0.000e+00 0.000e+00 
*LOADS
*RC add_67:A_0 0.000e+00
*RC C288:A 0.000e+00
*END

*R_NET idataA_mat_ff\[23\] 0.000e+00
*DRIVER idataA_mat_ff_reg_23_:Q
*CELL \*\*SEQGEN\*\*
*C2_R1_C1 0.000e+00 0.000e+00 0.000e+00 
*LOADS
*RC mult_68:A_23 0.000e+00
*END

*R_NET idataA_mat_ff\[22\] 0.000e+00
*DRIVER idataA_mat_ff_reg_22_:Q
*CELL \*\*SEQGEN\*\*
*C2_R1_C1 0.000e+00 0.000e+00 0.000e+00 
*LOADS
*RC mult_68:A_22 0.000e+00
*END

*R_NET idataA_mat_ff\[21\] 0.000e+00