*SPEF "IEEE 1481-1999"
*DESIGN "givens_rotation"
*DATE "Fri Dec  6 21:28:07 2024"
*VENDOR "SYNOPSYS INC"
*PROGRAM "Synopsys Design Compiler cmos"
*VERSION "T-2022.03-SP3"
*DESIGN_FLOW "SYNTHESIS"
*DIVIDER /
*DELIMITER :
*BUS_DELIMITER []
*T_UNIT 1.0 NS
*C_UNIT 0.0010 PF
*R_UNIT 1000.0 KOHM
*L_UNIT 1.0 HENRY

*PORTS

clk I *L 0.000e+00 *S 0.000e+00 1.261e+03 *D NBUFFX4_RVT 
reset I *L 0.000e+00 *S 7.836e-03 2.300e-02 *D NBUFFX4_RVT 
a\[31\] I *L 0.000e+00 *S 1.985e-03 4.037e-02 *D NBUFFX4_RVT 
a\[30\] I *L 0.000e+00 *S 4.035e-03 2.130e-02 *D NBUFFX4_RVT 
a\[29\] I *L 0.000e+00 *S 4.035e-03 2.130e-02 *D NBUFFX4_RVT 
a\[28\] I *L 0.000e+00 *S 4.035e-03 2.130e-02 *D NBUFFX4_RVT 
a\[27\] I *L 0.000e+00 *S 4.035e-03 2.130e-02 *D NBUFFX4_RVT 
a\[26\] I *L 0.000e+00 *S 4.035e-03 2.130e-02 *D NBUFFX4_RVT 
a\[25\] I *L 0.000e+00 *S 4.035e-03 2.130e-02 *D NBUFFX4_RVT 
a\[24\] I *L 0.000e+00 *S 4.035e-03 2.130e-02 *D NBUFFX4_RVT 
a\[23\] I *L 0.000e+00 *S 4.035e-03 2.130e-02 *D NBUFFX4_RVT 
a\[22\] I *L 0.000e+00 *S 4.035e-03 2.130e-02 *D NBUFFX4_RVT 
a\[21\] I *L 0.000e+00 *S 4.035e-03 2.130e-02 *D NBUFFX4_RVT 
a\[20\] I *L 0.000e+00 *S 4.035e-03 2.130e-02 *D NBUFFX4_RVT 
a\[19\] I *L 0.000e+00 *S 4.035e-03 2.130e-02 *D NBUFFX4_RVT 
a\[18\] I *L 0.000e+00 *S 4.035e-03 2.130e-02 *D NBUFFX4_RVT 
a\[17\] I *L 0.000e+00 *S 4.035e-03 2.130e-02 *D NBUFFX4_RVT 
a\[16\] I *L 0.000e+00 *S 4.035e-03 2.130e-02 *D NBUFFX4_RVT 
a\[15\] I *L 0.000e+00 *S 4.035e-03 2.130e-02 *D NBUFFX4_RVT 
a\[14\] I *L 0.000e+00 *S 4.035e-03 2.130e-02 *D NBUFFX4_RVT 
a\[13\] I *L 0.000e+00 *S 4.035e-03 2.130e-02 *D NBUFFX4_RVT 
a\[12\] I *L 0.000e+00 *S 4.035e-03 2.130e-02 *D NBUFFX4_RVT 
a\[11\] I *L 0.000e+00 *S 4.035e-03 2.130e-02 *D NBUFFX4_RVT 
a\[10\] I *L 0.000e+00 *S 4.035e-03 2.130e-02 *D NBUFFX4_RVT 
a\[9\] I *L 0.000e+00 *S 4.035e-03 2.130e-02 *D NBUFFX4_RVT 
a\[8\] I *L 0.000e+00 *S 4.035e-03 2.130e-02 *D NBUFFX4_RVT 
a\[7\] I *L 0.000e+00 *S 4.035e-03 2.130e-02 *D NBUFFX4_RVT 
a\[6\] I *L 0.000e+00 *S 4.035e-03 2.130e-02 *D NBUFFX4_RVT 
a\[5\] I *L 0.000e+00 *S 4.035e-03 2.130e-02 *D NBUFFX4_RVT 
a\[4\] I *L 0.000e+00 *S 4.035e-03 2.130e-02 *D NBUFFX4_RVT 
a\[3\] I *L 0.000e+00 *S 4.035e-03 2.130e-02 *D NBUFFX4_RVT 
a\[2\] I *L 0.000e+00 *S 4.035e-03 2.130e-02 *D NBUFFX4_RVT 
a\[1\] I *L 0.000e+00 *S 4.035e-03 2.130e-02 *D NBUFFX4_RVT 
a\[0\] I *L 0.000e+00 *S 4.035e-03 2.130e-02 *D NBUFFX4_RVT 
b\[31\] I *L 0.000e+00 *S 1.985e-03 4.037e-02 *D NBUFFX4_RVT 
b\[30\] I *L 0.000e+00 *S 4.035e-03 2.130e-02 *D NBUFFX4_RVT 
b\[29\] I *L 0.000e+00 *S 4.035e-03 2.130e-02 *D NBUFFX4_RVT 
b\[28\] I *L 0.000e+00 *S 4.035e-03 2.130e-02 *D NBUFFX4_RVT 
b\[27\] I *L 0.000e+00 *S 4.035e-03 2.130e-02 *D NBUFFX4_RVT 
b\[26\] I *L 0.000e+00 *S 4.035e-03 2.130e-02 *D NBUFFX4_RVT 
b\[25\] I *L 0.000e+00 *S 4.035e-03 2.130e-02 *D NBUFFX4_RVT 
b\[24\] I *L 0.000e+00 *S 4.035e-03 2.130e-02 *D NBUFFX4_RVT 
b\[23\] I *L 0.000e+00 *S 4.035e-03 2.130e-02 *D NBUFFX4_RVT 
b\[22\] I *L 0.000e+00 *S 4.035e-03 2.130e-02 *D NBUFFX4_RVT 
b\[21\] I *L 0.000e+00 *S 4.035e-03 2.130e-02 *D NBUFFX4_RVT 
b\[20\] I *L 0.000e+00 *S 4.035e-03 2.130e-02 *D NBUFFX4_RVT 
b\[19\] I *L 0.000e+00 *S 4.035e-03 2.130e-02 *D NBUFFX4_RVT 
b\[18\] I *L 0.000e+00 *S 4.035e-03 2.130e-02 *D NBUFFX4_RVT 
b\[17\] I *L 0.000e+00 *S 4.035e-03 2.130e-02 *D NBUFFX4_RVT 
b\[16\] I *L 0.000e+00 *S 4.035e-03 2.130e-02 *D NBUFFX4_RVT 
b\[15\] I *L 0.000e+00 *S 4.035e-03 2.130e-02 *D NBUFFX4_RVT 
b\[14\] I *L 0.000e+00 *S 4.035e-03 2.130e-02 *D NBUFFX4_RVT 
b\[13\] I *L 0.000e+00 *S 4.035e-03 2.130e-02 *D NBUFFX4_RVT 
b\[12\] I *L 0.000e+00 *S 4.035e-03 2.130e-02 *D NBUFFX4_RVT 
b\[11\] I *L 0.000e+00 *S 4.035e-03 2.130e-02 *D NBUFFX4_RVT 
b\[10\] I *L 0.000e+00 *S 4.035e-03 2.130e-02 *D NBUFFX4_RVT 
b\[9\] I *L 0.000e+00 *S 4.035e-03 2.130e-02 *D NBUFFX4_RVT 
b\[8\] I *L 0.000e+00 *S 4.035e-03 2.130e-02 *D NBUFFX4_RVT 
b\[7\] I *L 0.000e+00 *S 4.035e-03 2.130e-02 *D NBUFFX4_RVT 
b\[6\] I *L 0.000e+00 *S 4.035e-03 2.130e-02 *D NBUFFX4_RVT 
b\[5\] I *L 0.000e+00 *S 4.035e-03 2.130e-02 *D NBUFFX4_RVT 
b\[4\] I *L 0.000e+00 *S 4.035e-03 2.130e-02 *D NBUFFX4_RVT 
b\[3\] I *L 0.000e+00 *S 4.035e-03 2.130e-02 *D NBUFFX4_RVT 
b\[2\] I *L 0.000e+00 *S 4.035e-03 2.130e-02 *D NBUFFX4_RVT 
b\[1\] I *L 0.000e+00 *S 4.035e-03 2.130e-02 *D NBUFFX4_RVT 
b\[0\] I *L 0.000e+00 *S 4.035e-03 2.130e-02 *D NBUFFX4_RVT 
cos\[31\] O *L 1.000e-01 *S 5.303e-04 6.416e-04 
cos\[30\] O *L 1.000e-01 *S 5.303e-04 6.416e-04 
cos\[29\] O *L 1.000e-01 *S 5.303e-04 6.416e-04 
cos\[28\] O *L 1.000e-01 *S 5.303e-04 6.416e-04 
cos\[27\] O *L 1.000e-01 *S 5.303e-04 6.416e-04 
cos\[26\] O *L 1.000e-01 *S 5.303e-04 6.416e-04 
cos\[25\] O *L 1.000e-01 *S 5.303e-04 6.416e-04 
cos\[24\] O *L 1.000e-01 *S 5.303e-04 6.416e-04 
cos\[23\] O *L 1.000e-01 *S 5.303e-04 6.416e-04 
cos\[22\] O *L 1.000e-01 *S 5.303e-04 6.416e-04 
cos\[21\] O *L 1.000e-01 *S 5.303e-04 6.416e-04 
cos\[20\] O *L 1.000e-01 *S 5.303e-04 6.416e-04 
cos\[19\] O *L 1.000e-01 *S 5.303e-04 6.416e-04 
cos\[18\] O *L 1.000e-01 *S 5.303e-04 6.416e-04 
cos\[17\] O *L 1.000e-01 *S 5.303e-04 6.416e-04 
cos\[16\] O *L 1.000e-01 *S 5.303e-04 6.416e-04 
cos\[15\] O *L 1.000e-01 *S 5.303e-04 6.416e-04 
cos\[14\] O *L 1.000e-01 *S 5.303e-04 6.416e-04 
cos\[13\] O *L 1.000e-01 *S 5.303e-04 6.416e-04 
cos\[12\] O *L 1.000e-01 *S 5.303e-04 6.416e-04 
cos\[11\] O *L 1.000e-01 *S 5.303e-04 6.416e-04 
cos\[10\] O *L 1.000e-01 *S 5.303e-04 6.416e-04 
cos\[9\] O *L 1.000e-01 *S 5.303e-04 6.416e-04 
cos\[8\] O *L 1.000e-01 *S 5.303e-04 6.416e-04 
cos\[7\] O *L 1.000e-01 *S 5.303e-04 6.416e-04 
cos\[6\] O *L 1.000e-01 *S 5.303e-04 6.416e-04 
cos\[5\] O *L 1.000e-01 *S 5.303e-04 6.416e-04 
cos\[4\] O *L 1.000e-01 *S 5.303e-04 6.416e-04 
cos\[3\] O *L 1.000e-01 *S 5.303e-04 6.416e-04 
cos\[2\] O *L 1.000e-01 *S 5.303e-04 6.416e-04 
cos\[1\] O *L 1.000e-01 *S 5.303e-04 6.416e-04 
cos\[0\] O *L 1.000e-01 *S 5.303e-04 6.416e-04 
sin\[31\] O *L 1.000e-01 *S 5.303e-04 6.416e-04 
sin\[30\] O *L 1.000e-01 *S 5.303e-04 6.416e-04 
sin\[29\] O *L 1.000e-01 *S 5.303e-04 6.416e-04 
sin\[28\] O *L 1.000e-01 *S 5.303e-04 6.416e-04 
sin\[27\] O *L 1.000e-01 *S 5.303e-04 6.416e-04 
sin\[26\] O *L 1.000e-01 *S 5.303e-04 6.416e-04 
sin\[25\] O *L 1.000e-01 *S 5.303e-04 6.416e-04 
sin\[24\] O *L 1.000e-01 *S 5.303e-04 6.416e-04 
sin\[23\] O *L 1.000e-01 *S 5.303e-04 6.416e-04 
sin\[22\] O *L 1.000e-01 *S 5.303e-04 6.416e-04 
sin\[21\] O *L 1.000e-01 *S 5.303e-04 6.416e-04 
sin\[20\] O *L 1.000e-01 *S 5.303e-04 6.416e-04 
sin\[19\] O *L 1.000e-01 *S 5.303e-04 6.416e-04 
sin\[18\] O *L 1.000e-01 *S 5.303e-04 6.416e-04 
sin\[17\] O *L 1.000e-01 *S 5.303e-04 6.416e-04 
sin\[16\] O *L 1.000e-01 *S 5.303e-04 6.416e-04 
sin\[15\] O *L 1.000e-01 *S 5.303e-04 6.416e-04 
sin\[14\] O *L 1.000e-01 *S 5.303e-04 6.416e-04 
sin\[13\] O *L 1.000e-01 *S 5.303e-04 6.416e-04 
sin\[12\] O *L 1.000e-01 *S 5.303e-04 6.416e-04 
sin\[11\] O *L 1.000e-01 *S 5.303e-04 6.416e-04 
sin\[10\] O *L 1.000e-01 *S 5.303e-04 6.416e-04 
sin\[9\] O *L 1.000e-01 *S 5.303e-04 6.416e-04 
sin\[8\] O *L 1.000e-01 *S 5.303e-04 6.416e-04 
sin\[7\] O *L 1.000e-01 *S 5.303e-04 6.416e-04 
sin\[6\] O *L 1.000e-01 *S 5.303e-04 6.416e-04 
sin\[5\] O *L 1.000e-01 *S 5.303e-04 6.416e-04 
sin\[4\] O *L 1.000e-01 *S 5.303e-04 6.416e-04 
sin\[3\] O *L 1.000e-01 *S 5.303e-04 6.416e-04 
sin\[2\] O *L 1.000e-01 *S 5.303e-04 6.416e-04 
sin\[1\] O *L 1.000e-01 *S 5.303e-04 6.416e-04 
sin\[0\] O *L 1.000e-01 *S 5.303e-04 6.416e-04 

*R_NET reset 3.569e+01
*DRIVER reset
*CELL NBUFFX4_RVT
*C2_R1_C1 1.785e+01 1.566e+00 1.785e+01 
*LOADS
*RC U3866:A3 7.752e-01
*RC U20221:A1 8.598e-01
*RC U14675:A 8.115e+00
*RC U23454:A1 7.131e-01
*RC U23455:A1 7.131e-01
*END

*R_NET a\[31\] 2.527e+00
*DRIVER a\[31\]
*CELL NBUFFX4_RVT
*C2_R1_C1 1.263e+00 2.020e-01 1.263e+00 
*LOADS
*RC a_reg_array_reg_0__31_:D 5.104e-01
*END

*R_NET a\[30\] 5.329e+00
*DRIVER a\[30\]
*CELL NBUFFX4_RVT
*C2_R1_C1 2.665e+00 4.715e-01 2.665e+00 
*LOADS
*RC U21619:A1 6.604e-01
*RC a_reg_array_reg_0__30_:D 5.958e-01
*END

*R_NET a\[29\] 5.329e+00
*DRIVER a\[29\]
*CELL NBUFFX4_RVT
*C2_R1_C1 2.665e+00 4.715e-01 2.665e+00 
*LOADS
*RC U21618:A1 6.604e-01
*RC a_reg_array_reg_0__29_:D 5.958e-01
*END

*R_NET a\[28\] 5.329e+00
*DRIVER a\[28\]
*CELL NBUFFX4_RVT
*C2_R1_C1 2.665e+00 4.715e-01 2.665e+00 
*LOADS
*RC U21617:A1 6.604e-01
*RC a_reg_array_reg_0__28_:D 5.958e-01
*END

*R_NET a\[27\] 5.329e+00
*DRIVER a\[27\]
*CELL NBUFFX4_RVT
*C2_R1_C1 2.665e+00 4.715e-01 2.665e+00 
*LOADS
*RC U21616:A1 6.604e-01
*RC a_reg_array_reg_0__27_:D 5.958e-01
*END

*R_NET a\[26\] 5.329e+00
*DRIVER a\[26\]
*CELL NBUFFX4_RVT
*C2_R1_C1 2.665e+00 4.715e-01 2.665e+00 
*LOADS
*RC U21615:A1 6.604e-01
*RC a_reg_array_reg_0__26_:D 5.958e-01
*END

*R_NET a\[25\] 5.329e+00
*DRIVER a\[25\]
*CELL NBUFFX4_RVT
*C2_R1_C1 2.665e+00 4.715e-01 2.665e+00 
*LOADS
*RC U21614:A1 6.604e-01
*RC a_reg_array_reg_0__25_:D 5.958e-01
*END

*R_NET a\[24\] 5.329e+00
*DRIVER a\[24\]
*CELL NBUFFX4_RVT
*C2_R1_C1 2.665e+00 4.715e-01 2.665e+00 
*LOADS
*RC U21613:A1 6.604e-01
*RC a_reg_array_reg_0__24_:D 5.958e-01
*END

*R_NET a\[23\] 5.329e+00
*DRIVER a\[23\]
*CELL NBUFFX4_RVT
*C2_R1_C1 2.665e+00 4.715e-01 2.665e+00 
*LOADS
*RC U21612:A1 6.604e-01
*RC a_reg_array_reg_0__23_:D 5.958e-01
*END

*R_NET a\[22\] 5.329e+00
*DRIVER a\[22\]
*CELL NBUFFX4_RVT
*C2_R1_C1 2.665e+00 4.715e-01 2.665e+00 
*LOADS
*RC U21611:A1 6.604e-01
*RC a_reg_array_reg_0__22_:D 5.958e-01
*END

*R_NET a\[21\] 5.329e+00
*DRIVER a\[21\]
*CELL NBUFFX4_RVT
*C2_R1_C1 2.665e+00 4.715e-01 2.665e+00 
*LOADS
*RC U21610:A1 6.604e-01
*RC a_reg_array_reg_0__21_:D 5.958e-01
*END

*R_NET a\[20\] 5.329e+00
*DRIVER a\[20\]
*CELL NBUFFX4_RVT
*C2_R1_C1 2.665e+00 4.715e-01 2.665e+00 
*LOADS
*RC U21609:A1 6.604e-01
*RC a_reg_array_reg_0__20_:D 5.958e-01
*END

*R_NET a\[19\] 5.329e+00
*DRIVER a\[19\]
*CELL NBUFFX4_RVT
*C2_R1_C1 2.665e+00 4.715e-01 2.665e+00 
*LOADS
*RC U21608:A1 6.604e-01
*RC a_reg_array_reg_0__19_:D 5.958e-01
*END

*R_NET a\[18\] 5.329e+00
*DRIVER a\[18\]
*CELL NBUFFX4_RVT
*C2_R1_C1 2.665e+00 4.715e-01 2.665e+00 
*LOADS
*RC U21607:A1 6.604e-01
*RC a_reg_array_reg_0__18_:D 5.958e-01
*END

*R_NET a\[17\] 5.329e+00
*DRIVER a\[17\]
*CELL NBUFFX4_RVT
*C2_R1_C1 2.665e+00 4.715e-01 2.665e+00 
*LOADS
*RC U21606:A1 6.604e-01
*RC a_reg_array_reg_0__17_:D 5.958e-01
*END

*R_NET a\[16\] 5.329e+00
*DRIVER a\[16\]
*CELL NBUFFX4_RVT
*C2_R1_C1 2.665e+00 4.715e-01 2.665e+00 
*LOADS
*RC U21605:A1 6.604e-01
*RC a_reg_array_reg_0__16_:D 5.958e-01
*END

*R_NET a\[15\] 5.329e+00
*DRIVER a\[15\]
*CELL NBUFFX4_RVT
*C2_R1_C1 2.665e+00 4.715e-01 2.665e+00 
*LOADS
*RC U21604:A1 6.604e-01
*RC a_reg_array_reg_0__15_:D 5.958e-01
*END

*R_NET a\[14\] 5.329e+00
*DRIVER a\[14\]
*CELL NBUFFX4_RVT
*C2_R1_C1 2.665e+00 4.715e-01 2.665e+00 
*LOADS
*RC U21603:A1 6.604e-01
*RC a_reg_array_reg_0__14_:D 5.958e-01
*END

*R_NET a\[13\] 5.329e+00
*DRIVER a\[13\]
*CELL NBUFFX4_RVT
*C2_R1_C1 2.665e+00 4.715e-01 2.665e+00 
*LOADS
*RC U21602:A1 6.604e-01
*RC a_reg_array_reg_0__13_:D 5.958e-01
*END

*R_NET a\[12\] 5.329e+00
*DRIVER a\[12\]
*CELL NBUFFX4_RVT
*C2_R1_C1 2.665e+00 4.715e-01 2.665e+00 
*LOADS
*RC U21601:A1 6.604e-01
*RC a_reg_array_reg_0__12_:D 5.958e-01
*END

*R_NET a\[11\] 5.329e+00
*DRIVER a\[11\]
*CELL NBUFFX4_RVT
*C2_R1_C1 2.665e+00 4.715e-01 2.665e+00 
*LOADS
*RC U21600:A1 6.604e-01
*RC a_reg_array_reg_0__11_:D 5.958e-01
*END

*R_NET a\[10\] 5.329e+00
*DRIVER a\[10\]
*CELL NBUFFX4_RVT
*C2_R1_C1 2.665e+00 4.715e-01 2.665e+00 
*LOADS
*RC U21599:A1 6.604e-01
*RC a_reg_array_reg_0__10_:D 5.958e-01
*END

*R_NET a\[9\] 5.329e+00
*DRIVER a\[9\]
*CELL NBUFFX4_RVT
*C2_R1_C1 2.665e+00 4.715e-01 2.665e+00 
*LOADS
*RC U21598:A1 6.604e-01
*RC a_reg_array_reg_0__9_:D 5.958e-01
*END

*R_NET a\[8\] 5.329e+00
*DRIVER a\[8\]
*CELL NBUFFX4_RVT
*C2_R1_C1 2.665e+00 4.715e-01 2.665e+00 
*LOADS
*RC U21597:A1 6.604e-01
*RC a_reg_array_reg_0__8_:D 5.958e-01
*END

*R_NET a\[7\] 5.329e+00
*DRIVER a\[7\]
*CELL NBUFFX4_RVT
*C2_R1_C1 2.665e+00 4.715e-01 2.665e+00 
*LOADS
*RC U21596:A1 6.604e-01
*RC a_reg_array_reg_0__7_:D 5.958e-01
*END

*R_NET a\[6\] 5.329e+00
*DRIVER a\[6\]
*CELL NBUFFX4_RVT
*C2_R1_C1 2.665e+00 4.715e-01 2.665e+00 
*LOADS
*RC U21595:A1 6.604e-01
*RC a_reg_array_reg_0__6_:D 5.958e-01
*END

*R_NET a\[5\] 5.329e+00
*DRIVER a\[5\]
*CELL NBUFFX4_RVT
*C2_R1_C1 2.665e+00 4.715e-01 2.665e+00 
*LOADS
*RC U21594:A1 6.604e-01
*RC a_reg_array_reg_0__5_:D 5.958e-01
*END

*R_NET a\[4\] 5.329e+00
*DRIVER a\[4\]
*CELL NBUFFX4_RVT
*C2_R1_C1 2.665e+00 4.715e-01 2.665e+00 
*LOADS
*RC U21593:A1 6.604e-01
*RC a_reg_array_reg_0__4_:D 5.958e-01
*END

*R_NET a\[3\] 5.329e+00
*DRIVER a\[3\]
*CELL NBUFFX4_RVT
*C2_R1_C1 2.665e+00 4.715e-01 2.665e+00 
*LOADS
*RC U21592:A1 6.604e-01
*RC a_reg_array_reg_0__3_:D 5.958e-01
*END

*R_NET a\[2\] 5.329e+00
*DRIVER a\[2\]
*CELL NBUFFX4_RVT
*C2_R1_C1 2.665e+00 4.715e-01 2.665e+00 
*LOADS
*RC U21591:A1 6.604e-01
*RC a_reg_array_reg_0__2_:D 5.958e-01
*END

*R_NET a\[1\] 5.329e+00
*DRIVER a\[1\]
*CELL NBUFFX4_RVT
*C2_R1_C1 2.665e+00 4.715e-01 2.665e+00 
*LOADS
*RC U21590:A1 6.604e-01
*RC a_reg_array_reg_0__1_:D 5.958e-01
*END

*R_NET a\[0\] 5.329e+00
*DRIVER a\[0\]
*CELL NBUFFX4_RVT
*C2_R1_C1 2.665e+00 4.715e-01 2.665e+00 
*LOADS
*RC U8181:A1 6.604e-01
*RC a_reg_array_reg_0__0_:D 5.958e-01
*END

*R_NET b\[31\] 2.527e+00
*DRIVER b\[31\]
*CELL NBUFFX4_RVT
*C2_R1_C1 1.263e+00 2.020e-01 1.263e+00 
*LOADS
*RC b_reg_array_reg_0__31_:D 5.104e-01
*END

*R_NET b\[30\] 5.329e+00
*DRIVER b\[30\]
*CELL NBUFFX4_RVT
*C2_R1_C1 2.665e+00 4.715e-01 2.665e+00 
*LOADS
*RC U21925:A1 6.604e-01
*RC b_reg_array_reg_0__30_:D 5.958e-01
*END

*R_NET b\[29\] 5.329e+00
*DRIVER b\[29\]
*CELL NBUFFX4_RVT
*C2_R1_C1 2.665e+00 4.715e-01 2.665e+00 
*LOADS
*RC U21924:A1 6.604e-01
*RC b_reg_array_reg_0__29_:D 5.958e-01
*END

*R_NET b\[28\] 5.329e+00
*DRIVER b\[28\]
*CELL NBUFFX4_RVT
*C2_R1_C1 2.665e+00 4.715e-01 2.665e+00 
*LOADS
*RC U21923:A1 6.604e-01
*RC b_reg_array_reg_0__28_:D 5.958e-01
*END

*R_NET b\[27\] 5.329e+00
*DRIVER b\[27\]
*CELL NBUFFX4_RVT
*C2_R1_C1 2.665e+00 4.715e-01 2.665e+00 
*LOADS
*RC U21922:A1 6.604e-01
*RC b_reg_array_reg_0__27_:D 5.958e-01
*END

*R_NET b\[26\] 5.329e+00
*DRIVER b\[26\]
*CELL NBUFFX4_RVT
*C2_R1_C1 2.665e+00 4.715e-01 2.665e+00 
*LOADS
*RC U21921:A1 6.604e-01
*RC b_reg_array_reg_0__26_:D 5.958e-01
*END

*R_NET b\[25\] 5.329e+00
*DRIVER b\[25\]
*CELL NBUFFX4_RVT
*C2_R1_C1 2.665e+00 4.715e-01 2.665e+00 
*LOADS
*RC U21920:A1 6.604e-01
*RC b_reg_array_reg_0__25_:D 5.958e-01
*END

*R_NET b\[24\] 5.329e+00
*DRIVER b\[24\]
*CELL NBUFFX4_RVT
*C2_R1_C1 2.665e+00 4.715e-01 2.665e+00 
*LOADS
*RC U21919:A1 6.604e-01
*RC b_reg_array_reg_0__24_:D 5.958e-01
*END

*R_NET b\[23\] 5.329e+00
*DRIVER b\[23\]
*CELL NBUFFX4_RVT
*C2_R1_C1 2.665e+00 4.715e-01 2.665e+00 
*LOADS
*RC U21918:A1 6.604e-01
*RC b_reg_array_reg_0__23_:D 5.958e-01
*END

*R_NET b\[22\] 5.329e+00
*DRIVER b\[22\]
*CELL NBUFFX4_RVT
*C2_R1_C1 2.665e+00 4.715e-01 2.665e+00 
*LOADS
*RC U21917:A1 6.604e-01
*RC b_reg_array_reg_0__22_:D 5.958e-01
*END

*R_NET b\[21\] 5.329e+00
*DRIVER b\[21\]
*CELL NBUFFX4_RVT
*C2_R1_C1 2.665e+00 4.715e-01 2.665e+00 
*LOADS
*RC U21916:A1 6.604e-01
*RC b_reg_array_reg_0__21_:D 5.958e-01
*END

*R_NET b\[20\] 5.329e+00
*DRIVER b\[20\]
*CELL NBUFFX4_RVT
*C2_R1_C1 2.665e+00 4.715e-01 2.665e+00 
*LOADS
*RC U21915:A1 6.604e-01
*RC b_reg_array_reg_0__20_:D 5.958e-01
*END

*R_NET b\[19\] 5.329e+00
*DRIVER b\[19\]
*CELL NBUFFX4_RVT
*C2_R1_C1 2.665e+00 4.715e-01 2.665e+00 
*LOADS
*RC U21914:A1 6.604e-01
*RC b_reg_array_reg_0__19_:D 5.958e-01
*END

*R_NET b\[18\] 5.329e+00
*DRIVER b\[18\]
*CELL NBUFFX4_RVT
*C2_R1_C1 2.665e+00 4.715e-01 2.665e+00 
*LOADS
*RC U21913:A1 6.604e-01
*RC b_reg_array_reg_0__18_:D 5.958e-01
*END

*R_NET b\[17\] 5.329e+00
*DRIVER b\[17\]
*CELL NBUFFX4_RVT
*C2_R1_C1 2.665e+00 4.715e-01 2.665e+00 
*LOADS
*RC U21912:A1 6.604e-01
*RC b_reg_array_reg_0__17_:D 5.958e-01
*END

*R_NET b\[16\] 5.329e+00
*DRIVER b\[16\]
*CELL NBUFFX4_RVT
*C2_R1_C1 2.665e+00 4.715e-01 2.665e+00 
*LOADS
*RC U21911:A1 6.604e-01
*RC b_reg_array_reg_0__16_:D 5.958e-01
*END

*R_NET b\[15\] 5.329e+00
*DRIVER b\[15\]
*CELL NBUFFX4_RVT
*C2_R1_C1 2.665e+00 4.715e-01 2.665e+00 
*LOADS
*RC U21910:A1 6.604e-01
*RC b_reg_array_reg_0__15_:D 5.958e-01
*END

*R_NET b\[14\] 5.329e+00
*DRIVER b\[14\]
*CELL NBUFFX4_RVT
*C2_R1_C1 2.665e+00 4.715e-01 2.665e+00 
*LOADS
*RC U21909:A1 6.604e-01
*RC b_reg_array_reg_0__14_:D 5.958e-01
*END

*R_NET b\[13\] 5.329e+00
*DRIVER b\[13\]
*CELL NBUFFX4_RVT
*C2_R1_C1 2.665e+00 4.715e-01 2.665e+00 
*LOADS
*RC U21908:A1 6.604e-01
*RC b_reg_array_reg_0__13_:D 5.958e-01
*END

*R_NET b\[12\] 5.329e+00
*DRIVER b\[12\]
*CELL NBUFFX4_RVT
*C2_R1_C1 2.665e+00 4.715e-01 2.665e+00 
*LOADS
*RC U21907:A1 6.604e-01
*RC b_reg_array_reg_0__12_:D 5.958e-01
*END

*R_NET b\[11\] 5.329e+00
*DRIVER b\[11\]
*CELL NBUFFX4_RVT
*C2_R1_C1 2.665e+00 4.715e-01 2.665e+00 
*LOADS
*RC U21906:A1 6.604e-01
*RC b_reg_array_reg_0__11_:D 5.958e-01
*END

*R_NET b\[10\] 5.329e+00
*DRIVER b\[10\]
*CELL NBUFFX4_RVT
*C2_R1_C1 2.665e+00 4.715e-01 2.665e+00 
*LOADS
*RC U21905:A1 6.604e-01
*RC b_reg_array_reg_0__10_:D 5.958e-01
*END

*R_NET b\[9\] 5.329e+00
*DRIVER b\[9\]
*CELL NBUFFX4_RVT
*C2_R1_C1 2.665e+00 4.715e-01 2.665e+00 
*LOADS
*RC U21904:A1 6.604e-01
*RC b_reg_array_reg_0__9_:D 5.958e-01
*END

*R_NET b\[8\] 5.329e+00
*DRIVER b\[8\]
*CELL NBUFFX4_RVT
*C2_R1_C1 2.665e+00 4.715e-01 2.665e+00 
*LOADS
*RC U21903:A1 6.604e-01
*RC b_reg_array_reg_0__8_:D 5.958e-01
*END

*R_NET b\[7\] 5.329e+00
*DRIVER b\[7\]
*CELL NBUFFX4_RVT
*C2_R1_C1 2.665e+00 4.715e-01 2.665e+00 
*LOADS
*RC U21902:A1 6.604e-01
*RC b_reg_array_reg_0__7_:D 5.958e-01
*END

*R_NET b\[6\] 5.329e+00
*DRIVER b\[6\]
*CELL NBUFFX4_RVT
*C2_R1_C1 2.665e+00 4.715e-01 2.665e+00 
*LOADS
*RC U21901:A1 6.604e-01
*RC b_reg_array_reg_0__6_:D 5.958e-01
*END

*R_NET b\[5\] 5.329e+00
*DRIVER b\[5\]
*CELL NBUFFX4_RVT
*C2_R1_C1 2.665e+00 4.715e-01 2.665e+00 
*LOADS
*RC U21900:A1 6.604e-01
*RC b_reg_array_reg_0__5_:D 5.958e-01
*END

*R_NET b\[4\] 5.329e+00
*DRIVER b\[4\]
*CELL NBUFFX4_RVT
*C2_R1_C1 2.665e+00 4.715e-01 2.665e+00 
*LOADS
*RC U21899:A1 6.604e-01
*RC b_reg_array_reg_0__4_:D 5.958e-01
*END

*R_NET b\[3\] 5.329e+00
*DRIVER b\[3\]
*CELL NBUFFX4_RVT
*C2_R1_C1 2.665e+00 4.715e-01 2.665e+00 
*LOADS
*RC U21898:A1 6.604e-01
*RC b_reg_array_reg_0__3_:D 5.958e-01
*END

*R_NET b\[2\] 5.329e+00
*DRIVER b\[2\]
*CELL NBUFFX4_RVT
*C2_R1_C1 2.665e+00 4.715e-01 2.665e+00 
*LOADS
*RC U21897:A1 6.604e-01
*RC b_reg_array_reg_0__2_:D 5.958e-01
*END

*R_NET b\[1\] 5.329e+00
*DRIVER b\[1\]
*CELL NBUFFX4_RVT
*C2_R1_C1 2.665e+00 4.715e-01 2.665e+00 
*LOADS
*RC U21896:A1 6.604e-01
*RC b_reg_array_reg_0__1_:D 5.958e-01
*END

*R_NET b\[0\] 5.329e+00
*DRIVER b\[0\]
*CELL NBUFFX4_RVT
*C2_R1_C1 2.665e+00 4.715e-01 2.665e+00 
*LOADS
*RC U21895:A1 6.604e-01
*RC b_reg_array_reg_0__0_:D 5.958e-01
*END

*R_NET cos\[31\] 1.029e-01
*DRIVER cos_reg_31_:Q
*CELL DFFX1_RVT
*C2_R1_C1 5.144e-02 2.020e-01 5.144e-02 
*LOADS
*RC cos\[31\] 2.078e-02
*END

*R_NET cos\[30\] 1.029e-01
*DRIVER cos_reg_30_:Q
*CELL DFFX1_RVT
*C2_R1_C1 5.144e-02 2.020e-01 5.144e-02 
*LOADS
*RC cos\[30\] 2.078e-02
*END

*R_NET cos\[29\] 1.029e-01
*DRIVER cos_reg_29_:Q
*CELL DFFX1_RVT
*C2_R1_C1 5.144e-02 2.020e-01 5.144e-02 
*LOADS
*RC cos\[29\] 2.078e-02
*END

*R_NET cos\[28\] 1.029e-01
*DRIVER cos_reg_28_:Q
*CELL DFFX1_RVT
*C2_R1_C1 5.144e-02 2.020e-01 5.144e-02 
*LOADS
*RC cos\[28\] 2.078e-02
*END

*R_NET cos\[27\] 1.029e-01
*DRIVER cos_reg_27_:Q
*CELL DFFX1_RVT
*C2_R1_C1 5.144e-02 2.020e-01 5.144e-02 
*LOADS
*RC cos\[27\] 2.078e-02
*END

*R_NET cos\[26\] 1.029e-01
*DRIVER cos_reg_26_:Q
*CELL DFFX1_RVT
*C2_R1_C1 5.144e-02 2.020e-01 5.144e-02 
*LOADS
*RC cos\[26\] 2.078e-02
*END

*R_NET cos\[25\] 1.029e-01
*DRIVER cos_reg_25_:Q
*CELL DFFX1_RVT
*C2_R1_C1 5.144e-02 2.020e-01 5.144e-02 
*LOADS
*RC cos\[25\] 2.078e-02
*END

*R_NET cos\[24\] 1.029e-01
*DRIVER cos_reg_24_:Q
*CELL DFFX1_RVT
*C2_R1_C1 5.144e-02 2.020e-01 5.144e-02 
*LOADS
*RC cos\[24\] 2.078e-02
*END

*R_NET cos\[23\] 1.029e-01
*DRIVER cos_reg_23_:Q
*CELL DFFX1_RVT
*C2_R1_C1 5.144e-02 2.020e-01 5.144e-02 
*LOADS
*RC cos\[23\] 2.078e-02
*END

*R_NET cos\[22\] 1.029e-01
*DRIVER cos_reg_22_:Q
*CELL DFFX1_RVT
*C2_R1_C1 5.144e-02 2.020e-01 5.144e-02 
*LOADS
*RC cos\[22\] 2.078e-02
*END

*R_NET cos\[21\] 1.029e-01
*DRIVER cos_reg_21_:Q
*CELL DFFX1_RVT
*C2_R1_C1 5.144e-02 2.020e-01 5.144e-02 
*LOADS
*RC cos\[21\] 2.078e-02
*END

*R_NET cos\[20\] 1.029e-01
*DRIVER cos_reg_20_:Q
*CELL DFFX1_RVT
*C2_R1_C1 5.144e-02 2.020e-01 5.144e-02 
*LOADS
*RC cos\[20\] 2.078e-02
*END

*R_NET cos\[19\] 1.029e-01
*DRIVER cos_reg_19_:Q
*CELL DFFX1_RVT
*C2_R1_C1 5.144e-02 2.020e-01 5.144e-02 
*LOADS
*RC cos\[19\] 2.078e-02
*END

*R_NET cos\[18\] 1.029e-01
*DRIVER cos_reg_18_:Q
*CELL DFFX1_RVT
*C2_R1_C1 5.144e-02 2.020e-01 5.144e-02 
*LOADS
*RC cos\[18\] 2.078e-02
*END

*R_NET cos\[17\] 1.029e-01
*DRIVER cos_reg_17_:Q
*CELL DFFX1_RVT
*C2_R1_C1 5.144e-02 2.020e-01 5.144e-02 
*LOADS
*RC cos\[17\] 2.078e-02
*END

*R_NET cos\[16\] 1.029e-01
*DRIVER cos_reg_16_:Q
*CELL DFFX1_RVT
*C2_R1_C1 5.144e-02 2.020e-01 5.144e-02 
*LOADS
*RC cos\[16\] 2.078e-02
*END

*R_NET cos\[15\] 1.029e-01
*DRIVER cos_reg_15_:Q
*CELL DFFX1_RVT
*C2_R1_C1 5.144e-02 2.020e-01 5.144e-02 
*LOADS
*RC cos\[15\] 2.078e-02
*END

*R_NET cos\[14\] 1.029e-01
*DRIVER cos_reg_14_:Q
*CELL DFFX1_RVT
*C2_R1_C1 5.144e-02 2.020e-01 5.144e-02 
*LOADS
*RC cos\[14\] 2.078e-02
*END

*R_NET cos\[13\] 1.029e-01
*DRIVER cos_reg_13_:Q
*CELL DFFX1_RVT
*C2_R1_C1 5.144e-02 2.020e-01 5.144e-02 
*LOADS
*RC cos\[13\] 2.078e-02
*END

*R_NET cos\[12\] 1.029e-01
*DRIVER cos_reg_12_:Q
*CELL DFFX1_RVT
*C2_R1_C1 5.144e-02 2.020e-01 5.144e-02 
*LOADS
*RC cos\[12\] 2.078e-02
*END

*R_NET cos\[11\] 1.029e-01
*DRIVER cos_reg_11_:Q
*CELL DFFX1_RVT
*C2_R1_C1 5.144e-02 2.020e-01 5.144e-02 
*LOADS
*RC cos\[11\] 2.078e-02
*END

*R_NET cos\[10\] 1.029e-01
*DRIVER cos_reg_10_:Q
*CELL DFFX1_RVT
*C2_R1_C1 5.144e-02 2.020e-01 5.144e-02 
*LOADS
*RC cos\[10\] 2.078e-02
*END

*R_NET cos\[9\] 1.029e-01
*DRIVER cos_reg_9_:Q
*CELL DFFX1_RVT
*C2_R1_C1 5.144e-02 2.020e-01 5.144e-02 
*LOADS
*RC cos\[9\] 2.078e-02
*END

*R_NET cos\[8\] 1.029e-01
*DRIVER cos_reg_8_:Q
*CELL DFFX1_RVT
*C2_R1_C1 5.144e-02 2.020e-01 5.144e-02 
*LOADS
*RC cos\[8\] 2.078e-02
*END

*R_NET cos\[7\] 1.029e-01
*DRIVER cos_reg_7_:Q
*CELL DFFX1_RVT
*C2_R1_C1 5.144e-02 2.020e-01 5.144e-02 
*LOADS
*RC cos\[7\] 2.078e-02
*END

*R_NET cos\[6\] 1.029e-01
*DRIVER cos_reg_6_:Q
*CELL DFFX1_RVT
*C2_R1_C1 5.144e-02 2.020e-01 5.144e-02 
*LOADS
*RC cos\[6\] 2.078e-02
*END

*R_NET cos\[5\] 1.029e-01
*DRIVER cos_reg_5_:Q
*CELL DFFX1_RVT
*C2_R1_C1 5.144e-02 2.020e-01 5.144e-02 
*LOADS
*RC cos\[5\] 2.078e-02
*END

*R_NET cos\[4\] 1.029e-01
*DRIVER cos_reg_4_:Q
*CELL DFFX1_RVT
*C2_R1_C1 5.144e-02 2.020e-01 5.144e-02 
*LOADS
*RC cos\[4\] 2.078e-02
*END

*R_NET cos\[3\] 1.029e-01
*DRIVER cos_reg_3_:Q
*CELL DFFX1_RVT
*C2_R1_C1 5.144e-02 2.020e-01 5.144e-02 
*LOADS
*RC cos\[3\] 2.078e-02
*END

*R_NET cos\[2\] 1.029e-01
*DRIVER cos_reg_2_:Q
*CELL DFFX1_RVT
*C2_R1_C1 5.144e-02 2.020e-01 5.144e-02 
*LOADS
*RC cos\[2\] 2.078e-02
*END

*R_NET cos\[1\] 1.029e-01
*DRIVER cos_reg_1_:Q
*CELL DFFX1_RVT
*C2_R1_C1 5.144e-02 2.020e-01 5.144e-02 
*LOADS
*RC cos\[1\] 2.078e-02
*END

*R_NET cos\[0\] 1.029e-01
*DRIVER cos_reg_0_:Q
*CELL DFFX1_RVT
*C2_R1_C1 5.144e-02 2.020e-01 5.144e-02 
*LOADS
*RC cos\[0\] 2.078e-02
*END

*R_NET sin\[31\] 1.029e-01
*DRIVER sin_reg_31_:Q
*CELL DFFX1_RVT
*C2_R1_C1 5.144e-02 2.020e-01 5.144e-02 
*LOADS
*RC sin\[31\] 2.078e-02
*END

*R_NET sin\[30\] 1.029e-01
*DRIVER sin_reg_30_:Q
*CELL DFFX1_RVT
*C2_R1_C1 5.144e-02 2.020e-01 5.144e-02 
*LOADS
*RC sin\[30\] 2.078e-02
*END

*R_NET sin\[29\] 1.029e-01
*DRIVER sin_reg_29_:Q
*CELL DFFX1_RVT
*C2_R1_C1 5.144e-02 2.020e-01 5.144e-02 
*LOADS
*RC sin\[29\] 2.078e-02
*END

*R_NET sin\[28\] 1.029e-01
*DRIVER sin_reg_28_:Q
*CELL DFFX1_RVT
*C2_R1_C1 5.144e-02 2.020e-01 5.144e-02 
*LOADS
*RC sin\[28\] 2.078e-02
*END

*R_NET sin\[27\] 1.029e-01
*DRIVER sin_reg_27_:Q
*CELL DFFX1_RVT
*C2_R1_C1 5.144e-02 2.020e-01 5.144e-02 
*LOADS
*RC sin\[27\] 2.078e-02
*END

*R_NET sin\[26\] 1.029e-01
*DRIVER sin_reg_26_:Q
*CELL DFFX1_RVT
*C2_R1_C1 5.144e-02 2.020e-01 5.144e-02 
*LOADS
*RC sin\[26\] 2.078e-02
*END

*R_NET sin\[25\] 1.029e-01
*DRIVER sin_reg_25_:Q
*CELL DFFX1_RVT
*C2_R1_C1 5.144e-02 2.020e-01 5.144e-02 
*LOADS
*RC sin\[25\] 2.078e-02
*END

*R_NET sin\[24\] 1.029e-01
*DRIVER sin_reg_24_:Q
*CELL DFFX1_RVT
*C2_R1_C1 5.144e-02 2.020e-01 5.144e-02 
*LOADS
*RC sin\[24\] 2.078e-02
*END

*R_NET sin\[23\] 1.029e-01
*DRIVER sin_reg_23_:Q
*CELL DFFX1_RVT
*C2_R1_C1 5.144e-02 2.020e-01 5.144e-02 
*LOADS
*RC sin\[23\] 2.078e-02
*END

*R_NET sin\[22\] 1.029e-01
*DRIVER sin_reg_22_:Q
*CELL DFFX1_RVT
*C2_R1_C1 5.144e-02 2.020e-01 5.144e-02 
*LOADS
*RC sin\[22\] 2.078e-02
*END

*R_NET sin\[21\] 1.029e-01
*DRIVER sin_reg_21_:Q
*CELL DFFX1_RVT
*C2_R1_C1 5.144e-02 2.020e-01 5.144e-02 
*LOADS
*RC sin\[21\] 2.078e-02
*END

*R_NET sin\[20\] 1.029e-01
*DRIVER sin_reg_20_:Q
*CELL DFFX1_RVT
*C2_R1_C1 5.144e-02 2.020e-01 5.144e-02 
*LOADS
*RC sin\[20\] 2.078e-02
*END

*R_NET sin\[19\] 1.029e-01
*DRIVER sin_reg_19_:Q
*CELL DFFX1_RVT
*C2_R1_C1 5.144e-02 2.020e-01 5.144e-02 
*LOADS
*RC sin\[19\] 2.078e-02
*END

*R_NET sin\[18\] 1.029e-01
*DRIVER sin_reg_18_:Q
*CELL DFFX1_RVT
*C2_R1_C1 5.144e-02 2.020e-01 5.144e-02 
*LOADS
*RC sin\[18\] 2.078e-02
*END

*R_NET sin\[17\] 1.029e-01
*DRIVER sin_reg_17_:Q
*CELL DFFX1_RVT
*C2_R1_C1 5.144e-02 2.020e-01 5.144e-02 
*LOADS
*RC sin\[17\] 2.078e-02
*END

*R_NET sin\[16\] 1.029e-01
*DRIVER sin_reg_16_:Q
*CELL DFFX1_RVT
*C2_R1_C1 5.144e-02 2.020e-01 5.144e-02 
*LOADS
*RC sin\[16\] 2.078e-02
*END

*R_NET sin\[15\] 1.029e-01
*DRIVER sin_reg_15_:Q
*CELL DFFX1_RVT
*C2_R1_C1 5.144e-02 2.020e-01 5.144e-02 
*LOADS
*RC sin\[15\] 2.078e-02
*END

*R_NET sin\[14\] 1.029e-01
*DRIVER sin_reg_14_:Q
*CELL DFFX1_RVT
*C2_R1_C1 5.144e-02 2.020e-01 5.144e-02 
*LOADS
*RC sin\[14\] 2.078e-02
*END

*R_NET sin\[13\] 1.029e-01
*DRIVER sin_reg_13_:Q
*CELL DFFX1_RVT
*C2_R1_C1 5.144e-02 2.020e-01 5.144e-02 
*LOADS
*RC sin\[13\] 2.078e-02
*END

*R_NET sin\[12\] 1.029e-01
*DRIVER sin_reg_12_:Q
*CELL DFFX1_RVT
*C2_R1_C1 5.144e-02 2.020e-01 5.144e-02 
*LOADS
*RC sin\[12\] 2.078e-02
*END

*R_NET sin\[11\] 1.029e-01
*DRIVER sin_reg_11_:Q
*CELL DFFX1_RVT
*C2_R1_C1 5.144e-02 2.020e-01 5.144e-02 
*LOADS
*RC sin\[11\] 2.078e-02
*END

*R_NET sin\[10\] 1.029e-01
*DRIVER sin_reg_10_:Q
*CELL DFFX1_RVT
*C2_R1_C1 5.144e-02 2.020e-01 5.144e-02 
*LOADS
*RC sin\[10\] 2.078e-02
*END

*R_NET sin\[9\] 1.029e-01
*DRIVER sin_reg_9_:Q
*CELL DFFX1_RVT
*C2_R1_C1 5.144e-02 2.020e-01 5.144e-02 
*LOADS
*RC sin\[9\] 2.078e-02
*END

*R_NET sin\[8\] 1.029e-01
*DRIVER sin_reg_8_:Q
*CELL DFFX1_RVT
*C2_R1_C1 5.144e-02 2.020e-01 5.144e-02 
*LOADS
*RC sin\[8\] 2.078e-02
*END

*R_NET sin\[7\] 1.029e-01
*DRIVER sin_reg_7_:Q
*CELL DFFX1_RVT
*C2_R1_C1 5.144e-02 2.020e-01 5.144e-02 
*LOADS
*RC sin\[7\] 2.078e-02
*END

*R_NET sin\[6\] 1.029e-01
*DRIVER sin_reg_6_:Q
*CELL DFFX1_RVT
*C2_R1_C1 5.144e-02 2.020e-01 5.144e-02 
*LOADS
*RC sin\[6\] 2.078e-02
*END

*R_NET sin\[5\] 1.029e-01
*DRIVER sin_reg_5_:Q
*CELL DFFX1_RVT
*C2_R1_C1 5.144e-02 2.020e-01 5.144e-02 
*LOADS
*RC sin\[5\] 2.078e-02
*END

*R_NET sin\[4\] 1.029e-01
*DRIVER sin_reg_4_:Q
*CELL DFFX1_RVT
*C2_R1_C1 5.144e-02 2.020e-01 5.144e-02 
*LOADS
*RC sin\[4\] 2.078e-02
*END

*R_NET sin\[3\] 1.029e-01
*DRIVER sin_reg_3_:Q
*CELL DFFX1_RVT
*C2_R1_C1 5.144e-02 2.020e-01 5.144e-02 
*LOADS
*RC sin\[3\] 2.078e-02
*END

*R_NET sin\[2\] 1.029e-01
*DRIVER sin_reg_2_:Q
*CELL DFFX1_RVT
*C2_R1_C1 5.144e-02 2.020e-01 5.144e-02 
*LOADS
*RC sin\[2\] 2.078e-02
*END

*R_NET sin\[1\] 1.029e-01
*DRIVER sin_reg_1_:Q
*CELL DFFX1_RVT
*C2_R1_C1 5.144e-02 2.020e-01 5.144e-02 
*LOADS
*RC sin\[1\] 2.078e-02
*END

*R_NET sin\[0\] 1.029e-01
*DRIVER sin_reg_0_:Q
*CELL DFFX1_RVT
*C2_R1_C1 5.144e-02 2.020e-01 5.144e-02 
*LOADS
*RC sin\[0\] 2.078e-02
*END

*R_NET a_reg_array\[671\] 2.527e+00
*DRIVER a_reg_array_reg_0__31_:Q
*CELL DFFARX1_RVT
*C2_R1_C1 1.263e+00 2.020e-01 1.263e+00 
*LOADS
*RC a_reg_array_reg_1__31_:D 5.104e-01
*END

*R_NET a_reg_array\[670\] 2.527e+00
*DRIVER a_reg_array_reg_0__30_:Q
*CELL DFFARX1_RVT
*C2_R1_C1 1.263e+00 2.020e-01 1.263e+00 
*LOADS
*RC a_reg_array_reg_1__30_:D 5.104e-01
*END

*R_NET a_reg_array\[669\] 2.527e+00
*DRIVER a_reg_array_reg_0__29_:Q
*CELL DFFARX1_RVT
*C2_R1_C1 1.263e+00 2.020e-01 1.263e+00 
*LOADS
*RC a_reg_array_reg_1__29_:D 5.104e-01
*END

*R_NET a_reg_array\[668\] 2.527e+00
*DRIVER a_reg_array_reg_0__28_:Q
*CELL DFFARX1_RVT
*C2_R1_C1 1.263e+00 2.020e-01 1.263e+00 
*LOADS
*RC a_reg_array_reg_1__28_:D 5.104e-01
*END

*R_NET a_reg_array\[667\] 2.527e+00
*DRIVER a_reg_array_reg_0__27_:Q
*CELL DFFARX1_RVT
*C2_R1_C1 1.263e+00 2.020e-01 1.263e+00 
*LOADS
*RC a_reg_array_reg_1__27_:D 5.104e-01
*END

*R_NET a_reg_array\[666\] 2.527e+00
*DRIVER a_reg_array_reg_0__26_:Q
*CELL DFFARX1_RVT
*C2_R1_C1 1.263e+00 2.020e-01 1.263e+00 
*LOADS
*RC a_reg_array_reg_1__26_:D 5.104e-01
*END

*R_NET a_reg_array\[665\] 2.527e+00
*DRIVER a_reg_array_reg_0__25_:Q
*CELL DFFARX1_RVT
*C2_R1_C1 1.263e+00 2.020e-01 1.263e+00 
*LOADS
*RC a_reg_array_reg_1__25_:D 5.104e-01
*END

*R_NET a_reg_array\[664\] 2.527e+00
*DRIVER a_reg_array_reg_0__24_:Q
*CELL DFFARX1_RVT
*C2_R1_C1 1.263e+00 2.020e-01 1.263e+00 
*LOADS
*RC a_reg_array_reg_1__24_:D 5.104e-01
*END

*R_NET a_reg_array\[663\] 2.527e+00
*DRIVER a_reg_array_reg_0__23_:Q
*CELL DFFARX1_RVT
*C2_R1_C1 1.263e+00 2.020e-01 1.263e+00 
*LOADS
*RC a_reg_array_reg_1__23_:D 5.104e-01
*END

*R_NET a_reg_array\[662\] 2.527e+00
*DRIVER a_reg_array_reg_0__22_:Q
*CELL DFFARX1_RVT
*C2_R1_C1 1.263e+00 2.020e-01 1.263e+00 
*LOADS
*RC a_reg_array_reg_1__22_:D 5.104e-01
*END

*R_NET a_reg_array\[661\] 2.527e+00
*DRIVER a_reg_array_reg_0__21_:Q
*CELL DFFARX1_RVT
*C2_R1_C1 1.263e+00 2.020e-01 1.263e+00 
*LOADS
*RC a_reg_array_reg_1__21_:D 5.104e-01
*END

*R_NET a_reg_array\[660\] 2.527e+00